
---------- Begin Simulation Statistics ----------
simSeconds                                   0.161889                       # Number of seconds simulated (Second)
simTicks                                 161888851201                       # Number of ticks simulated (Tick)
finalTick                                161888851201                       # Number of ticks from beginning of simulation (restored from checkpoints and never reset) (Tick)
simFreq                                  1000000000000                       # The number of ticks per simulated second ((Tick/Second))
hostSeconds                                   1265.93                       # Real time elapsed on the host (Second)
hostTickRate                                127881046                       # The number of ticks simulated per host second (ticks/s) ((Tick/Second))
hostMemory                                    1068560                       # Number of bytes of host memory used (Byte)
simInsts                                    250461678                       # Number of instructions simulated (Count)
simOps                                      424487525                       # Number of ops (including micro ops) simulated (Count)
hostInstRate                                   197847                       # Simulator instruction rate (inst/s) ((Count/Second))
hostOpRate                                     335316                       # Simulator op (including micro ops) rate (op/s) ((Count/Second))
system.clk_domain.clock                          2500                       # Clock period in ticks (Tick)
system.cpu.numCycles                        517216778                       # Number of cpu cycles simulated (Cycle)
system.cpu.cpi                               2.065054                       # CPI: cycles per instruction (core level) ((Cycle/Count))
system.cpu.ipc                               0.484249                       # IPC: instructions per cycle (core level) ((Count/Cycle))
system.cpu.numWorkItemsStarted                      0                       # Number of work items this cpu started (Count)
system.cpu.numWorkItemsCompleted                    0                       # Number of work items this cpu completed (Count)
system.cpu.instsAdded                       425885013                       # Number of instructions added to the IQ (excludes non-spec) (Count)
system.cpu.nonSpecInstsAdded                     1746                       # Number of non-speculative instructions added to the IQ (Count)
system.cpu.instsIssued                      425504432                       # Number of instructions issued (Count)
system.cpu.squashedInstsIssued                   2813                       # Number of squashed instructions issued (Count)
system.cpu.squashedInstsExamined              1399228                       # Number of squashed instructions iterated over during squash; mainly for profiling (Count)
system.cpu.squashedOperandsExamined           2033701                       # Number of squashed operands that are examined and possibly removed from graph (Count)
system.cpu.squashedNonSpecRemoved                 675                       # Number of squashed non-spec instructions that were removed (Count)
system.cpu.numIssuedDist::samples           511810810                       # Number of insts issued each cycle (Count)
system.cpu.numIssuedDist::mean               0.831371                       # Number of insts issued each cycle (Count)
system.cpu.numIssuedDist::stdev              1.629946                       # Number of insts issued each cycle (Count)
system.cpu.numIssuedDist::underflows                0      0.00%      0.00% # Number of insts issued each cycle (Count)
system.cpu.numIssuedDist::0                 370245583     72.34%     72.34% # Number of insts issued each cycle (Count)
system.cpu.numIssuedDist::1                  36623479      7.16%     79.50% # Number of insts issued each cycle (Count)
system.cpu.numIssuedDist::2                  29122205      5.69%     85.19% # Number of insts issued each cycle (Count)
system.cpu.numIssuedDist::3                  22631670      4.42%     89.61% # Number of insts issued each cycle (Count)
system.cpu.numIssuedDist::4                  23612281      4.61%     94.22% # Number of insts issued each cycle (Count)
system.cpu.numIssuedDist::5                  15100334      2.95%     97.17% # Number of insts issued each cycle (Count)
system.cpu.numIssuedDist::6                  10071243      1.97%     99.14% # Number of insts issued each cycle (Count)
system.cpu.numIssuedDist::7                   2868839      0.56%     99.70% # Number of insts issued each cycle (Count)
system.cpu.numIssuedDist::8                   1535176      0.30%    100.00% # Number of insts issued each cycle (Count)
system.cpu.numIssuedDist::overflows                 0      0.00%    100.00% # Number of insts issued each cycle (Count)
system.cpu.numIssuedDist::min_value                 0                       # Number of insts issued each cycle (Count)
system.cpu.numIssuedDist::max_value                 8                       # Number of insts issued each cycle (Count)
system.cpu.numIssuedDist::total             511810810                       # Number of insts issued each cycle (Count)
system.cpu.statFuBusy::No_OpClass                   0      0.00%      0.00% # attempts to use FU when none available (Count)
system.cpu.statFuBusy::IntAlu                  661320     19.93%     19.93% # attempts to use FU when none available (Count)
system.cpu.statFuBusy::IntMult                      0      0.00%     19.93% # attempts to use FU when none available (Count)
system.cpu.statFuBusy::IntDiv                       0      0.00%     19.93% # attempts to use FU when none available (Count)
system.cpu.statFuBusy::FloatAdd                     0      0.00%     19.93% # attempts to use FU when none available (Count)
system.cpu.statFuBusy::FloatCmp                     0      0.00%     19.93% # attempts to use FU when none available (Count)
system.cpu.statFuBusy::FloatCvt                     0      0.00%     19.93% # attempts to use FU when none available (Count)
system.cpu.statFuBusy::FloatMult                    0      0.00%     19.93% # attempts to use FU when none available (Count)
system.cpu.statFuBusy::FloatMultAcc                 0      0.00%     19.93% # attempts to use FU when none available (Count)
system.cpu.statFuBusy::FloatDiv                     0      0.00%     19.93% # attempts to use FU when none available (Count)
system.cpu.statFuBusy::FloatMisc                    0      0.00%     19.93% # attempts to use FU when none available (Count)
system.cpu.statFuBusy::FloatSqrt                    0      0.00%     19.93% # attempts to use FU when none available (Count)
system.cpu.statFuBusy::SimdAdd                      0      0.00%     19.93% # attempts to use FU when none available (Count)
system.cpu.statFuBusy::SimdAddAcc                   0      0.00%     19.93% # attempts to use FU when none available (Count)
system.cpu.statFuBusy::SimdAlu                     78      0.00%     19.94% # attempts to use FU when none available (Count)
system.cpu.statFuBusy::SimdCmp                      0      0.00%     19.94% # attempts to use FU when none available (Count)
system.cpu.statFuBusy::SimdCvt                      2      0.00%     19.94% # attempts to use FU when none available (Count)
system.cpu.statFuBusy::SimdMisc                     0      0.00%     19.94% # attempts to use FU when none available (Count)
system.cpu.statFuBusy::SimdMult                     0      0.00%     19.94% # attempts to use FU when none available (Count)
system.cpu.statFuBusy::SimdMultAcc                  0      0.00%     19.94% # attempts to use FU when none available (Count)
system.cpu.statFuBusy::SimdMatMultAcc               0      0.00%     19.94% # attempts to use FU when none available (Count)
system.cpu.statFuBusy::SimdShift                    2      0.00%     19.94% # attempts to use FU when none available (Count)
system.cpu.statFuBusy::SimdShiftAcc                 0      0.00%     19.94% # attempts to use FU when none available (Count)
system.cpu.statFuBusy::SimdDiv                      0      0.00%     19.94% # attempts to use FU when none available (Count)
system.cpu.statFuBusy::SimdSqrt                     0      0.00%     19.94% # attempts to use FU when none available (Count)
system.cpu.statFuBusy::SimdFloatAdd                 0      0.00%     19.94% # attempts to use FU when none available (Count)
system.cpu.statFuBusy::SimdFloatAlu                 0      0.00%     19.94% # attempts to use FU when none available (Count)
system.cpu.statFuBusy::SimdFloatCmp                 0      0.00%     19.94% # attempts to use FU when none available (Count)
system.cpu.statFuBusy::SimdFloatCvt                 0      0.00%     19.94% # attempts to use FU when none available (Count)
system.cpu.statFuBusy::SimdFloatDiv                 0      0.00%     19.94% # attempts to use FU when none available (Count)
system.cpu.statFuBusy::SimdFloatMisc                0      0.00%     19.94% # attempts to use FU when none available (Count)
system.cpu.statFuBusy::SimdFloatMult                0      0.00%     19.94% # attempts to use FU when none available (Count)
system.cpu.statFuBusy::SimdFloatMultAcc             0      0.00%     19.94% # attempts to use FU when none available (Count)
system.cpu.statFuBusy::SimdFloatMatMultAcc            0      0.00%     19.94% # attempts to use FU when none available (Count)
system.cpu.statFuBusy::SimdFloatSqrt                0      0.00%     19.94% # attempts to use FU when none available (Count)
system.cpu.statFuBusy::SimdReduceAdd                0      0.00%     19.94% # attempts to use FU when none available (Count)
system.cpu.statFuBusy::SimdReduceAlu                0      0.00%     19.94% # attempts to use FU when none available (Count)
system.cpu.statFuBusy::SimdReduceCmp                0      0.00%     19.94% # attempts to use FU when none available (Count)
system.cpu.statFuBusy::SimdFloatReduceAdd            0      0.00%     19.94% # attempts to use FU when none available (Count)
system.cpu.statFuBusy::SimdFloatReduceCmp            0      0.00%     19.94% # attempts to use FU when none available (Count)
system.cpu.statFuBusy::SimdAes                      0      0.00%     19.94% # attempts to use FU when none available (Count)
system.cpu.statFuBusy::SimdAesMix                   0      0.00%     19.94% # attempts to use FU when none available (Count)
system.cpu.statFuBusy::SimdSha1Hash                 0      0.00%     19.94% # attempts to use FU when none available (Count)
system.cpu.statFuBusy::SimdSha1Hash2                0      0.00%     19.94% # attempts to use FU when none available (Count)
system.cpu.statFuBusy::SimdSha256Hash               0      0.00%     19.94% # attempts to use FU when none available (Count)
system.cpu.statFuBusy::SimdSha256Hash2              0      0.00%     19.94% # attempts to use FU when none available (Count)
system.cpu.statFuBusy::SimdShaSigma2                0      0.00%     19.94% # attempts to use FU when none available (Count)
system.cpu.statFuBusy::SimdShaSigma3                0      0.00%     19.94% # attempts to use FU when none available (Count)
system.cpu.statFuBusy::SimdPredAlu                  0      0.00%     19.94% # attempts to use FU when none available (Count)
system.cpu.statFuBusy::Matrix                       0      0.00%     19.94% # attempts to use FU when none available (Count)
system.cpu.statFuBusy::MatrixMov                    0      0.00%     19.94% # attempts to use FU when none available (Count)
system.cpu.statFuBusy::MatrixOP                     0      0.00%     19.94% # attempts to use FU when none available (Count)
system.cpu.statFuBusy::MemRead                1902466     57.35%     77.28% # attempts to use FU when none available (Count)
system.cpu.statFuBusy::MemWrite                753394     22.71%     99.99% # attempts to use FU when none available (Count)
system.cpu.statFuBusy::FloatMemRead               152      0.00%    100.00% # attempts to use FU when none available (Count)
system.cpu.statFuBusy::FloatMemWrite               38      0.00%    100.00% # attempts to use FU when none available (Count)
system.cpu.statFuBusy::IprAccess                    0      0.00%    100.00% # attempts to use FU when none available (Count)
system.cpu.statFuBusy::InstPrefetch                 0      0.00%    100.00% # attempts to use FU when none available (Count)
system.cpu.statFuBusy::SimdUnitStrideLoad            0      0.00%    100.00% # attempts to use FU when none available (Count)
system.cpu.statFuBusy::SimdUnitStrideStore            0      0.00%    100.00% # attempts to use FU when none available (Count)
system.cpu.statFuBusy::SimdUnitStrideMaskLoad            0      0.00%    100.00% # attempts to use FU when none available (Count)
system.cpu.statFuBusy::SimdUnitStrideMaskStore            0      0.00%    100.00% # attempts to use FU when none available (Count)
system.cpu.statFuBusy::SimdStridedLoad              0      0.00%    100.00% # attempts to use FU when none available (Count)
system.cpu.statFuBusy::SimdStridedStore             0      0.00%    100.00% # attempts to use FU when none available (Count)
system.cpu.statFuBusy::SimdIndexedLoad              0      0.00%    100.00% # attempts to use FU when none available (Count)
system.cpu.statFuBusy::SimdIndexedStore             0      0.00%    100.00% # attempts to use FU when none available (Count)
system.cpu.statFuBusy::SimdWholeRegisterLoad            0      0.00%    100.00% # attempts to use FU when none available (Count)
system.cpu.statFuBusy::SimdWholeRegisterStore            0      0.00%    100.00% # attempts to use FU when none available (Count)
system.cpu.statFuBusy::SimdUnitStrideFaultOnlyFirstLoad            0      0.00%    100.00% # attempts to use FU when none available (Count)
system.cpu.statFuBusy::SimdUnitStrideSegmentedLoad            0      0.00%    100.00% # attempts to use FU when none available (Count)
system.cpu.statFuBusy::SimdUnitStrideSegmentedStore            0      0.00%    100.00% # attempts to use FU when none available (Count)
system.cpu.statFuBusy::SimdExt                      0      0.00%    100.00% # attempts to use FU when none available (Count)
system.cpu.statFuBusy::SimdFloatExt                 0      0.00%    100.00% # attempts to use FU when none available (Count)
system.cpu.statFuBusy::SimdConfig                   0      0.00%    100.00% # attempts to use FU when none available (Count)
system.cpu.statIssuedInstType_0::No_OpClass        13716      0.00%      0.00% # Number of instructions issued per FU type, per thread (Count)
system.cpu.statIssuedInstType_0::IntAlu     255296151     60.00%     60.00% # Number of instructions issued per FU type, per thread (Count)
system.cpu.statIssuedInstType_0::IntMult      1789817      0.42%     60.42% # Number of instructions issued per FU type, per thread (Count)
system.cpu.statIssuedInstType_0::IntDiv          4341      0.00%     60.42% # Number of instructions issued per FU type, per thread (Count)
system.cpu.statIssuedInstType_0::FloatAdd      8031667      1.89%     62.31% # Number of instructions issued per FU type, per thread (Count)
system.cpu.statIssuedInstType_0::FloatCmp            0      0.00%     62.31% # Number of instructions issued per FU type, per thread (Count)
system.cpu.statIssuedInstType_0::FloatCvt          610      0.00%     62.31% # Number of instructions issued per FU type, per thread (Count)
system.cpu.statIssuedInstType_0::FloatMult            0      0.00%     62.31% # Number of instructions issued per FU type, per thread (Count)
system.cpu.statIssuedInstType_0::FloatMultAcc            0      0.00%     62.31% # Number of instructions issued per FU type, per thread (Count)
system.cpu.statIssuedInstType_0::FloatDiv            0      0.00%     62.31% # Number of instructions issued per FU type, per thread (Count)
system.cpu.statIssuedInstType_0::FloatMisc            0      0.00%     62.31% # Number of instructions issued per FU type, per thread (Count)
system.cpu.statIssuedInstType_0::FloatSqrt            0      0.00%     62.31% # Number of instructions issued per FU type, per thread (Count)
system.cpu.statIssuedInstType_0::SimdAdd           30      0.00%     62.31% # Number of instructions issued per FU type, per thread (Count)
system.cpu.statIssuedInstType_0::SimdAddAcc            0      0.00%     62.31% # Number of instructions issued per FU type, per thread (Count)
system.cpu.statIssuedInstType_0::SimdAlu      2981418      0.70%     63.01% # Number of instructions issued per FU type, per thread (Count)
system.cpu.statIssuedInstType_0::SimdCmp            0      0.00%     63.01% # Number of instructions issued per FU type, per thread (Count)
system.cpu.statIssuedInstType_0::SimdCvt          318      0.00%     63.01% # Number of instructions issued per FU type, per thread (Count)
system.cpu.statIssuedInstType_0::SimdMisc      2678477      0.63%     63.64% # Number of instructions issued per FU type, per thread (Count)
system.cpu.statIssuedInstType_0::SimdMult            0      0.00%     63.64% # Number of instructions issued per FU type, per thread (Count)
system.cpu.statIssuedInstType_0::SimdMultAcc            0      0.00%     63.64% # Number of instructions issued per FU type, per thread (Count)
system.cpu.statIssuedInstType_0::SimdMatMultAcc            0      0.00%     63.64% # Number of instructions issued per FU type, per thread (Count)
system.cpu.statIssuedInstType_0::SimdShift           34      0.00%     63.64% # Number of instructions issued per FU type, per thread (Count)
system.cpu.statIssuedInstType_0::SimdShiftAcc            0      0.00%     63.64% # Number of instructions issued per FU type, per thread (Count)
system.cpu.statIssuedInstType_0::SimdDiv            0      0.00%     63.64% # Number of instructions issued per FU type, per thread (Count)
system.cpu.statIssuedInstType_0::SimdSqrt            0      0.00%     63.64% # Number of instructions issued per FU type, per thread (Count)
system.cpu.statIssuedInstType_0::SimdFloatAdd      1484699      0.35%     63.99% # Number of instructions issued per FU type, per thread (Count)
system.cpu.statIssuedInstType_0::SimdFloatAlu            0      0.00%     63.99% # Number of instructions issued per FU type, per thread (Count)
system.cpu.statIssuedInstType_0::SimdFloatCmp            0      0.00%     63.99% # Number of instructions issued per FU type, per thread (Count)
system.cpu.statIssuedInstType_0::SimdFloatCvt      3860695      0.91%     64.90% # Number of instructions issued per FU type, per thread (Count)
system.cpu.statIssuedInstType_0::SimdFloatDiv       300354      0.07%     64.97% # Number of instructions issued per FU type, per thread (Count)
system.cpu.statIssuedInstType_0::SimdFloatMisc            0      0.00%     64.97% # Number of instructions issued per FU type, per thread (Count)
system.cpu.statIssuedInstType_0::SimdFloatMult      1184383      0.28%     65.25% # Number of instructions issued per FU type, per thread (Count)
system.cpu.statIssuedInstType_0::SimdFloatMultAcc            0      0.00%     65.25% # Number of instructions issued per FU type, per thread (Count)
system.cpu.statIssuedInstType_0::SimdFloatMatMultAcc            0      0.00%     65.25% # Number of instructions issued per FU type, per thread (Count)
system.cpu.statIssuedInstType_0::SimdFloatSqrt            0      0.00%     65.25% # Number of instructions issued per FU type, per thread (Count)
system.cpu.statIssuedInstType_0::SimdReduceAdd            0      0.00%     65.25% # Number of instructions issued per FU type, per thread (Count)
system.cpu.statIssuedInstType_0::SimdReduceAlu            0      0.00%     65.25% # Number of instructions issued per FU type, per thread (Count)
system.cpu.statIssuedInstType_0::SimdReduceCmp            0      0.00%     65.25% # Number of instructions issued per FU type, per thread (Count)
system.cpu.statIssuedInstType_0::SimdFloatReduceAdd            0      0.00%     65.25% # Number of instructions issued per FU type, per thread (Count)
system.cpu.statIssuedInstType_0::SimdFloatReduceCmp            0      0.00%     65.25% # Number of instructions issued per FU type, per thread (Count)
system.cpu.statIssuedInstType_0::SimdAes            0      0.00%     65.25% # Number of instructions issued per FU type, per thread (Count)
system.cpu.statIssuedInstType_0::SimdAesMix            0      0.00%     65.25% # Number of instructions issued per FU type, per thread (Count)
system.cpu.statIssuedInstType_0::SimdSha1Hash            0      0.00%     65.25% # Number of instructions issued per FU type, per thread (Count)
system.cpu.statIssuedInstType_0::SimdSha1Hash2            0      0.00%     65.25% # Number of instructions issued per FU type, per thread (Count)
system.cpu.statIssuedInstType_0::SimdSha256Hash            0      0.00%     65.25% # Number of instructions issued per FU type, per thread (Count)
system.cpu.statIssuedInstType_0::SimdSha256Hash2            0      0.00%     65.25% # Number of instructions issued per FU type, per thread (Count)
system.cpu.statIssuedInstType_0::SimdShaSigma2            0      0.00%     65.25% # Number of instructions issued per FU type, per thread (Count)
system.cpu.statIssuedInstType_0::SimdShaSigma3            0      0.00%     65.25% # Number of instructions issued per FU type, per thread (Count)
system.cpu.statIssuedInstType_0::SimdPredAlu            0      0.00%     65.25% # Number of instructions issued per FU type, per thread (Count)
system.cpu.statIssuedInstType_0::Matrix             0      0.00%     65.25% # Number of instructions issued per FU type, per thread (Count)
system.cpu.statIssuedInstType_0::MatrixMov            0      0.00%     65.25% # Number of instructions issued per FU type, per thread (Count)
system.cpu.statIssuedInstType_0::MatrixOP            0      0.00%     65.25% # Number of instructions issued per FU type, per thread (Count)
system.cpu.statIssuedInstType_0::MemRead     83455630     19.61%     84.86% # Number of instructions issued per FU type, per thread (Count)
system.cpu.statIssuedInstType_0::MemWrite     52207673     12.27%     97.13% # Number of instructions issued per FU type, per thread (Count)
system.cpu.statIssuedInstType_0::FloatMemRead      9222839      2.17%     99.30% # Number of instructions issued per FU type, per thread (Count)
system.cpu.statIssuedInstType_0::FloatMemWrite      2991580      0.70%    100.00% # Number of instructions issued per FU type, per thread (Count)
system.cpu.statIssuedInstType_0::IprAccess            0      0.00%    100.00% # Number of instructions issued per FU type, per thread (Count)
system.cpu.statIssuedInstType_0::InstPrefetch            0      0.00%    100.00% # Number of instructions issued per FU type, per thread (Count)
system.cpu.statIssuedInstType_0::SimdUnitStrideLoad            0      0.00%    100.00% # Number of instructions issued per FU type, per thread (Count)
system.cpu.statIssuedInstType_0::SimdUnitStrideStore            0      0.00%    100.00% # Number of instructions issued per FU type, per thread (Count)
system.cpu.statIssuedInstType_0::SimdUnitStrideMaskLoad            0      0.00%    100.00% # Number of instructions issued per FU type, per thread (Count)
system.cpu.statIssuedInstType_0::SimdUnitStrideMaskStore            0      0.00%    100.00% # Number of instructions issued per FU type, per thread (Count)
system.cpu.statIssuedInstType_0::SimdStridedLoad            0      0.00%    100.00% # Number of instructions issued per FU type, per thread (Count)
system.cpu.statIssuedInstType_0::SimdStridedStore            0      0.00%    100.00% # Number of instructions issued per FU type, per thread (Count)
system.cpu.statIssuedInstType_0::SimdIndexedLoad            0      0.00%    100.00% # Number of instructions issued per FU type, per thread (Count)
system.cpu.statIssuedInstType_0::SimdIndexedStore            0      0.00%    100.00% # Number of instructions issued per FU type, per thread (Count)
system.cpu.statIssuedInstType_0::SimdWholeRegisterLoad            0      0.00%    100.00% # Number of instructions issued per FU type, per thread (Count)
system.cpu.statIssuedInstType_0::SimdWholeRegisterStore            0      0.00%    100.00% # Number of instructions issued per FU type, per thread (Count)
system.cpu.statIssuedInstType_0::SimdUnitStrideFaultOnlyFirstLoad            0      0.00%    100.00% # Number of instructions issued per FU type, per thread (Count)
system.cpu.statIssuedInstType_0::SimdUnitStrideSegmentedLoad            0      0.00%    100.00% # Number of instructions issued per FU type, per thread (Count)
system.cpu.statIssuedInstType_0::SimdUnitStrideSegmentedStore            0      0.00%    100.00% # Number of instructions issued per FU type, per thread (Count)
system.cpu.statIssuedInstType_0::SimdExt            0      0.00%    100.00% # Number of instructions issued per FU type, per thread (Count)
system.cpu.statIssuedInstType_0::SimdFloatExt            0      0.00%    100.00% # Number of instructions issued per FU type, per thread (Count)
system.cpu.statIssuedInstType_0::SimdConfig            0      0.00%    100.00% # Number of instructions issued per FU type, per thread (Count)
system.cpu.statIssuedInstType_0::total      425504432                       # Number of instructions issued per FU type, per thread (Count)
system.cpu.issueRate                         0.822681                       # Inst issue rate ((Count/Cycle))
system.cpu.fuBusy                             3317452                       # FU busy when requested (Count)
system.cpu.fuBusyRate                        0.007797                       # FU busy rate (busy events/executed inst) ((Count/Count))
system.cpu.intInstQueueReads               1300665417                       # Number of integer instruction queue reads (Count)
system.cpu.intInstQueueWrites               394504391                       # Number of integer instruction queue writes (Count)
system.cpu.intInstQueueWakeupAccesses       392654893                       # Number of integer instruction queue wakeup accesses (Count)
system.cpu.fpInstQueueReads                  65474522                       # Number of floating instruction queue reads (Count)
system.cpu.fpInstQueueWrites                 32791291                       # Number of floating instruction queue writes (Count)
system.cpu.fpInstQueueWakeupAccesses         32734469                       # Number of floating instruction queue wakeup accesses (Count)
system.cpu.vecInstQueueReads                        0                       # Number of vector instruction queue reads (Count)
system.cpu.vecInstQueueWrites                       0                       # Number of vector instruction queue writes (Count)
system.cpu.vecInstQueueWakeupAccesses               0                       # Number of vector instruction queue wakeup accesses (Count)
system.cpu.intAluAccesses                   396070775                       # Number of integer alu accesses (Count)
system.cpu.fpAluAccesses                     32737393                       # Number of floating point alu accesses (Count)
system.cpu.vecAluAccesses                           0                       # Number of vector alu accesses (Count)
system.cpu.numSquashedInsts                     80283                       # Number of squashed instructions skipped in execute (Count)
system.cpu.numSwp                                   0                       # Number of swp insts executed (Count)
system.cpu.timesIdled                            2006                       # Number of times that the entire CPU went into an idle state and unscheduled itself (Count)
system.cpu.idleCycles                         5405968                       # Total number of cycles that the CPU has spent unscheduled due to idling (Cycle)
system.cpu.MemDepUnit__0.insertedLoads       92752002                       # Number of loads inserted to the mem dependence unit. (Count)
system.cpu.MemDepUnit__0.insertedStores      55242004                       # Number of stores inserted to the mem dependence unit. (Count)
system.cpu.MemDepUnit__0.conflictingLoads     42087239                       # Number of conflicting loads. (Count)
system.cpu.MemDepUnit__0.conflictingStores     12168230                       # Number of conflicting stores. (Count)
system.cpu.MemDepUnit__1.insertedLoads              0                       # Number of loads inserted to the mem dependence unit. (Count)
system.cpu.MemDepUnit__1.insertedStores             0                       # Number of stores inserted to the mem dependence unit. (Count)
system.cpu.MemDepUnit__1.conflictingLoads            0                       # Number of conflicting loads. (Count)
system.cpu.MemDepUnit__1.conflictingStores            0                       # Number of conflicting stores. (Count)
system.cpu.MemDepUnit__2.insertedLoads              0                       # Number of loads inserted to the mem dependence unit. (Count)
system.cpu.MemDepUnit__2.insertedStores             0                       # Number of stores inserted to the mem dependence unit. (Count)
system.cpu.MemDepUnit__2.conflictingLoads            0                       # Number of conflicting loads. (Count)
system.cpu.MemDepUnit__2.conflictingStores            0                       # Number of conflicting stores. (Count)
system.cpu.MemDepUnit__3.insertedLoads              0                       # Number of loads inserted to the mem dependence unit. (Count)
system.cpu.MemDepUnit__3.insertedStores             0                       # Number of stores inserted to the mem dependence unit. (Count)
system.cpu.MemDepUnit__3.conflictingLoads            0                       # Number of conflicting loads. (Count)
system.cpu.MemDepUnit__3.conflictingStores            0                       # Number of conflicting stores. (Count)
system.cpu.branchPred.lookups_0::NoBranch            2      0.00%      0.00% # Number of BP lookups (Count)
system.cpu.branchPred.lookups_0::Return      12476559     37.40%     37.40% # Number of BP lookups (Count)
system.cpu.branchPred.lookups_0::CallDirect     12448813     37.31%     74.71% # Number of BP lookups (Count)
system.cpu.branchPred.lookups_0::CallIndirect          755      0.00%     74.71% # Number of BP lookups (Count)
system.cpu.branchPred.lookups_0::DirectCond      7991821     23.95%     98.67% # Number of BP lookups (Count)
system.cpu.branchPred.lookups_0::DirectUncond       128084      0.38%     99.05% # Number of BP lookups (Count)
system.cpu.branchPred.lookups_0::IndirectCond            0      0.00%     99.05% # Number of BP lookups (Count)
system.cpu.branchPred.lookups_0::IndirectUncond       316129      0.95%    100.00% # Number of BP lookups (Count)
system.cpu.branchPred.lookups_0::total       33362163                       # Number of BP lookups (Count)
system.cpu.branchPred.squashes_0::NoBranch            2      0.00%      0.00% # Number of branches that got squashed (completely removed) as an earlier branch was mispredicted. (Count)
system.cpu.branchPred.squashes_0::Return        64634     28.85%     28.85% # Number of branches that got squashed (completely removed) as an earlier branch was mispredicted. (Count)
system.cpu.branchPred.squashes_0::CallDirect        37335     16.66%     45.51% # Number of branches that got squashed (completely removed) as an earlier branch was mispredicted. (Count)
system.cpu.branchPred.squashes_0::CallIndirect          304      0.14%     45.65% # Number of branches that got squashed (completely removed) as an earlier branch was mispredicted. (Count)
system.cpu.branchPred.squashes_0::DirectCond       107254     47.87%     93.52% # Number of branches that got squashed (completely removed) as an earlier branch was mispredicted. (Count)
system.cpu.branchPred.squashes_0::DirectUncond        12076      5.39%     98.91% # Number of branches that got squashed (completely removed) as an earlier branch was mispredicted. (Count)
system.cpu.branchPred.squashes_0::IndirectCond            0      0.00%     98.91% # Number of branches that got squashed (completely removed) as an earlier branch was mispredicted. (Count)
system.cpu.branchPred.squashes_0::IndirectUncond         2439      1.09%    100.00% # Number of branches that got squashed (completely removed) as an earlier branch was mispredicted. (Count)
system.cpu.branchPred.squashes_0::total        224044                       # Number of branches that got squashed (completely removed) as an earlier branch was mispredicted. (Count)
system.cpu.branchPred.corrected_0::NoBranch            1      0.00%      0.00% # Number of branches that got corrected but not yet commited. Branches get corrected by decode or after execute. Also a branch misprediction can be detected out-of-order. Therefore, a corrected branch might not end up beeing committed in case an even earlier branch was mispredicted (Count)
system.cpu.branchPred.corrected_0::Return           74      0.26%      0.27% # Number of branches that got corrected but not yet commited. Branches get corrected by decode or after execute. Also a branch misprediction can be detected out-of-order. Therefore, a corrected branch might not end up beeing committed in case an even earlier branch was mispredicted (Count)
system.cpu.branchPred.corrected_0::CallDirect         1232      4.37%      4.64% # Number of branches that got corrected but not yet commited. Branches get corrected by decode or after execute. Also a branch misprediction can be detected out-of-order. Therefore, a corrected branch might not end up beeing committed in case an even earlier branch was mispredicted (Count)
system.cpu.branchPred.corrected_0::CallIndirect          177      0.63%      5.26% # Number of branches that got corrected but not yet commited. Branches get corrected by decode or after execute. Also a branch misprediction can be detected out-of-order. Therefore, a corrected branch might not end up beeing committed in case an even earlier branch was mispredicted (Count)
system.cpu.branchPred.corrected_0::DirectCond        25662     91.04%     96.30% # Number of branches that got corrected but not yet commited. Branches get corrected by decode or after execute. Also a branch misprediction can be detected out-of-order. Therefore, a corrected branch might not end up beeing committed in case an even earlier branch was mispredicted (Count)
system.cpu.branchPred.corrected_0::DirectUncond          697      2.47%     98.78% # Number of branches that got corrected but not yet commited. Branches get corrected by decode or after execute. Also a branch misprediction can be detected out-of-order. Therefore, a corrected branch might not end up beeing committed in case an even earlier branch was mispredicted (Count)
system.cpu.branchPred.corrected_0::IndirectCond            0      0.00%     98.78% # Number of branches that got corrected but not yet commited. Branches get corrected by decode or after execute. Also a branch misprediction can be detected out-of-order. Therefore, a corrected branch might not end up beeing committed in case an even earlier branch was mispredicted (Count)
system.cpu.branchPred.corrected_0::IndirectUncond          345      1.22%    100.00% # Number of branches that got corrected but not yet commited. Branches get corrected by decode or after execute. Also a branch misprediction can be detected out-of-order. Therefore, a corrected branch might not end up beeing committed in case an even earlier branch was mispredicted (Count)
system.cpu.branchPred.corrected_0::total        28188                       # Number of branches that got corrected but not yet commited. Branches get corrected by decode or after execute. Also a branch misprediction can be detected out-of-order. Therefore, a corrected branch might not end up beeing committed in case an even earlier branch was mispredicted (Count)
system.cpu.branchPred.earlyResteers_0::NoBranch            0                       # Number of branches that got redirected after decode. (Count)
system.cpu.branchPred.earlyResteers_0::Return            0                       # Number of branches that got redirected after decode. (Count)
system.cpu.branchPred.earlyResteers_0::CallDirect            0                       # Number of branches that got redirected after decode. (Count)
system.cpu.branchPred.earlyResteers_0::CallIndirect            0                       # Number of branches that got redirected after decode. (Count)
system.cpu.branchPred.earlyResteers_0::DirectCond            0                       # Number of branches that got redirected after decode. (Count)
system.cpu.branchPred.earlyResteers_0::DirectUncond            0                       # Number of branches that got redirected after decode. (Count)
system.cpu.branchPred.earlyResteers_0::IndirectCond            0                       # Number of branches that got redirected after decode. (Count)
system.cpu.branchPred.earlyResteers_0::IndirectUncond            0                       # Number of branches that got redirected after decode. (Count)
system.cpu.branchPred.earlyResteers_0::total            0                       # Number of branches that got redirected after decode. (Count)
system.cpu.branchPred.committed_0::NoBranch            0      0.00%      0.00% # Number of branches finally committed  (Count)
system.cpu.branchPred.committed_0::Return     12411925     37.46%     37.46% # Number of branches finally committed  (Count)
system.cpu.branchPred.committed_0::CallDirect     12411478     37.45%     74.91% # Number of branches finally committed  (Count)
system.cpu.branchPred.committed_0::CallIndirect          451      0.00%     74.91% # Number of branches finally committed  (Count)
system.cpu.branchPred.committed_0::DirectCond      7884566     23.79%     98.70% # Number of branches finally committed  (Count)
system.cpu.branchPred.committed_0::DirectUncond       116008      0.35%     99.05% # Number of branches finally committed  (Count)
system.cpu.branchPred.committed_0::IndirectCond            0      0.00%     99.05% # Number of branches finally committed  (Count)
system.cpu.branchPred.committed_0::IndirectUncond       313690      0.95%    100.00% # Number of branches finally committed  (Count)
system.cpu.branchPred.committed_0::total     33138118                       # Number of branches finally committed  (Count)
system.cpu.branchPred.mispredicted_0::NoBranch            0      0.00%      0.00% # Number of committed branches that were mispredicted. (Count)
system.cpu.branchPred.mispredicted_0::Return           54      0.21%      0.21% # Number of committed branches that were mispredicted. (Count)
system.cpu.branchPred.mispredicted_0::CallDirect          903      3.51%      3.72% # Number of committed branches that were mispredicted. (Count)
system.cpu.branchPred.mispredicted_0::CallIndirect          160      0.62%      4.35% # Number of committed branches that were mispredicted. (Count)
system.cpu.branchPred.mispredicted_0::DirectCond        23929     93.12%     97.47% # Number of committed branches that were mispredicted. (Count)
system.cpu.branchPred.mispredicted_0::DirectUncond          340      1.32%     98.79% # Number of committed branches that were mispredicted. (Count)
system.cpu.branchPred.mispredicted_0::IndirectCond            0      0.00%     98.79% # Number of committed branches that were mispredicted. (Count)
system.cpu.branchPred.mispredicted_0::IndirectUncond          310      1.21%    100.00% # Number of committed branches that were mispredicted. (Count)
system.cpu.branchPred.mispredicted_0::total        25696                       # Number of committed branches that were mispredicted. (Count)
system.cpu.branchPred.targetProvider_0::NoTarget      2142854      6.42%      6.42% # The component providing the target for taken branches (Count)
system.cpu.branchPred.targetProvider_0::BTB     18427909     55.24%     61.66% # The component providing the target for taken branches (Count)
system.cpu.branchPred.targetProvider_0::RAS     12476554     37.40%     99.06% # The component providing the target for taken branches (Count)
system.cpu.branchPred.targetProvider_0::Indirect       314846      0.94%    100.00% # The component providing the target for taken branches (Count)
system.cpu.branchPred.targetProvider_0::total     33362163                       # The component providing the target for taken branches (Count)
system.cpu.branchPred.targetWrong_0::NoBranch        18549     66.54%     66.54% # Number of branches where the target was incorrect or not available at prediction time. (Count)
system.cpu.branchPred.targetWrong_0::Return         9231     33.11%     99.66% # Number of branches where the target was incorrect or not available at prediction time. (Count)
system.cpu.branchPred.targetWrong_0::CallDirect           74      0.27%     99.92% # Number of branches where the target was incorrect or not available at prediction time. (Count)
system.cpu.branchPred.targetWrong_0::CallIndirect           22      0.08%    100.00% # Number of branches where the target was incorrect or not available at prediction time. (Count)
system.cpu.branchPred.targetWrong_0::DirectCond            0      0.00%    100.00% # Number of branches where the target was incorrect or not available at prediction time. (Count)
system.cpu.branchPred.targetWrong_0::DirectUncond            0      0.00%    100.00% # Number of branches where the target was incorrect or not available at prediction time. (Count)
system.cpu.branchPred.targetWrong_0::IndirectCond            0      0.00%    100.00% # Number of branches where the target was incorrect or not available at prediction time. (Count)
system.cpu.branchPred.targetWrong_0::IndirectUncond            0      0.00%    100.00% # Number of branches where the target was incorrect or not available at prediction time. (Count)
system.cpu.branchPred.targetWrong_0::total        27876                       # Number of branches where the target was incorrect or not available at prediction time. (Count)
system.cpu.branchPred.condPredicted           7991823                       # Number of conditional branches predicted (Count)
system.cpu.branchPred.condPredictedTaken      5856682                       # Number of conditional branches predicted as taken (Count)
system.cpu.branchPred.condIncorrect             28188                       # Number of conditional branches incorrect (Count)
system.cpu.branchPred.predTakenBTBMiss           2817                       # Number of branches predicted taken but missed in BTB (Count)
system.cpu.branchPred.NotTakenMispredicted        18950                       # Number branches predicted 'not taken' but turned out to be taken (Count)
system.cpu.branchPred.TakenMispredicted          9238                       # Number branches predicted taken but are actually not taken (Count)
system.cpu.branchPred.BTBLookups             33362163                       # Number of BTB lookups (Count)
system.cpu.branchPred.BTBUpdates                18353                       # Number of BTB updates (Count)
system.cpu.branchPred.BTBHits                19194270                       # Number of BTB hits (Count)
system.cpu.branchPred.BTBHitRatio            0.575331                       # BTB Hit Ratio (Ratio)
system.cpu.branchPred.BTBMispredicted            3614                       # Number BTB mispredictions. No target found or target wrong (Count)
system.cpu.branchPred.indirectLookups          316884                       # Number of indirect predictor lookups. (Count)
system.cpu.branchPred.indirectHits             314846                       # Number of indirect target hits. (Count)
system.cpu.branchPred.indirectMisses             2038                       # Number of indirect misses. (Count)
system.cpu.branchPred.indirectMispredicted            0                       # Number of mispredicted indirect branches. (Count)
system.cpu.branchPred.btb.lookups::NoBranch            2      0.00%      0.00% # Number of BTB lookups (Count)
system.cpu.branchPred.btb.lookups::Return     12476559     37.40%     37.40% # Number of BTB lookups (Count)
system.cpu.branchPred.btb.lookups::CallDirect     12448813     37.31%     74.71% # Number of BTB lookups (Count)
system.cpu.branchPred.btb.lookups::CallIndirect          755      0.00%     74.71% # Number of BTB lookups (Count)
system.cpu.branchPred.btb.lookups::DirectCond      7991821     23.95%     98.67% # Number of BTB lookups (Count)
system.cpu.branchPred.btb.lookups::DirectUncond       128084      0.38%     99.05% # Number of BTB lookups (Count)
system.cpu.branchPred.btb.lookups::IndirectCond            0      0.00%     99.05% # Number of BTB lookups (Count)
system.cpu.branchPred.btb.lookups::IndirectUncond       316129      0.95%    100.00% # Number of BTB lookups (Count)
system.cpu.branchPred.btb.lookups::total     33362163                       # Number of BTB lookups (Count)
system.cpu.branchPred.btb.misses::NoBranch            2      0.00%      0.00% # Number of BTB misses (Count)
system.cpu.branchPred.btb.misses::Return     12476505     88.06%     88.06% # Number of BTB misses (Count)
system.cpu.branchPred.btb.misses::CallDirect         1658      0.01%     88.07% # Number of BTB misses (Count)
system.cpu.branchPred.btb.misses::CallIndirect          619      0.00%     88.08% # Number of BTB misses (Count)
system.cpu.branchPred.btb.misses::DirectCond      1372045      9.68%     97.76% # Number of BTB misses (Count)
system.cpu.branchPred.btb.misses::DirectUncond          935      0.01%     97.77% # Number of BTB misses (Count)
system.cpu.branchPred.btb.misses::IndirectCond            0      0.00%     97.77% # Number of BTB misses (Count)
system.cpu.branchPred.btb.misses::IndirectUncond       316129      2.23%    100.00% # Number of BTB misses (Count)
system.cpu.branchPred.btb.misses::total      14167893                       # Number of BTB misses (Count)
system.cpu.branchPred.btb.updates::NoBranch            0      0.00%      0.00% # Number of BTB updates (Count)
system.cpu.branchPred.btb.updates::Return            0      0.00%      0.00% # Number of BTB updates (Count)
system.cpu.branchPred.btb.updates::CallDirect         1232      6.71%      6.71% # Number of BTB updates (Count)
system.cpu.branchPred.btb.updates::CallIndirect            0      0.00%      6.71% # Number of BTB updates (Count)
system.cpu.branchPred.btb.updates::DirectCond        16424     89.49%     96.20% # Number of BTB updates (Count)
system.cpu.branchPred.btb.updates::DirectUncond          697      3.80%    100.00% # Number of BTB updates (Count)
system.cpu.branchPred.btb.updates::IndirectCond            0      0.00%    100.00% # Number of BTB updates (Count)
system.cpu.branchPred.btb.updates::IndirectUncond            0      0.00%    100.00% # Number of BTB updates (Count)
system.cpu.branchPred.btb.updates::total        18353                       # Number of BTB updates (Count)
system.cpu.branchPred.btb.mispredict::NoBranch            0      0.00%      0.00% # Number of BTB mispredictions. No target found or target wrong. (Count)
system.cpu.branchPred.btb.mispredict::Return            0      0.00%      0.00% # Number of BTB mispredictions. No target found or target wrong. (Count)
system.cpu.branchPred.btb.mispredict::CallDirect         1232      6.71%      6.71% # Number of BTB mispredictions. No target found or target wrong. (Count)
system.cpu.branchPred.btb.mispredict::CallIndirect            0      0.00%      6.71% # Number of BTB mispredictions. No target found or target wrong. (Count)
system.cpu.branchPred.btb.mispredict::DirectCond        16424     89.49%     96.20% # Number of BTB mispredictions. No target found or target wrong. (Count)
system.cpu.branchPred.btb.mispredict::DirectUncond          697      3.80%    100.00% # Number of BTB mispredictions. No target found or target wrong. (Count)
system.cpu.branchPred.btb.mispredict::IndirectCond            0      0.00%    100.00% # Number of BTB mispredictions. No target found or target wrong. (Count)
system.cpu.branchPred.btb.mispredict::IndirectUncond            0      0.00%    100.00% # Number of BTB mispredictions. No target found or target wrong. (Count)
system.cpu.branchPred.btb.mispredict::total        18353                       # Number of BTB mispredictions. No target found or target wrong. (Count)
system.cpu.branchPred.btb.power_state.pwrStateResidencyTicks::UNDEFINED 161888851201                       # Cumulative time (in ticks) in various power states (Tick)
system.cpu.branchPred.indirectBranchPred.lookups       316884                       # Number of lookups (Count)
system.cpu.branchPred.indirectBranchPred.hits       314846                       # Number of hits of a tag (Count)
system.cpu.branchPred.indirectBranchPred.misses         2038                       # Number of misses (Count)
system.cpu.branchPred.indirectBranchPred.targetRecords          522                       # Number of targets that where recorded/installed in the cache (Count)
system.cpu.branchPred.indirectBranchPred.indirectRecords       317406                       # Number of indirect branches/calls recorded in the indirect hist (Count)
system.cpu.branchPred.indirectBranchPred.speculativeOverflows            0                       # Number of times more than the allowed capacity for speculative branches/calls where in flight and destroy the path history (Count)
system.cpu.branchPred.ras.pushes             12514202                       # Number of times a PC was pushed onto the RAS (Count)
system.cpu.branchPred.ras.pops               12514198                       # Number of times a PC was poped from the RAS (Count)
system.cpu.branchPred.ras.squashes             102273                       # Number of times the stack operation was squashed due to wrong speculation. (Count)
system.cpu.branchPred.ras.used               12411925                       # Number of times the RAS is the provider (Count)
system.cpu.branchPred.ras.correct            12411871                       # Number of times the RAS is the provider and the prediction is correct (Count)
system.cpu.branchPred.ras.incorrect                54                       # Number of times the RAS is the provider and the prediction is wrong (Count)
system.cpu.commit.commitSquashedInsts         1389789                       # The number of squashed insts skipped by commit (Count)
system.cpu.commit.commitNonSpecStalls            1071                       # The number of times commit has been forced to stall to communicate backwards (Count)
system.cpu.commit.branchMispredicts             27843                       # The number of times a branch was mispredicted (Count)
system.cpu.commit.numCommittedDist::samples    511609973                       # Number of insts commited each cycle (Count)
system.cpu.commit.numCommittedDist::mean     0.829709                       # Number of insts commited each cycle (Count)
system.cpu.commit.numCommittedDist::stdev     2.135644                       # Number of insts commited each cycle (Count)
system.cpu.commit.numCommittedDist::underflows            0      0.00%      0.00% # Number of insts commited each cycle (Count)
system.cpu.commit.numCommittedDist::0       411922477     80.51%     80.51% # Number of insts commited each cycle (Count)
system.cpu.commit.numCommittedDist::1        30913226      6.04%     86.56% # Number of insts commited each cycle (Count)
system.cpu.commit.numCommittedDist::2         9369577      1.83%     88.39% # Number of insts commited each cycle (Count)
system.cpu.commit.numCommittedDist::3        12726769      2.49%     90.88% # Number of insts commited each cycle (Count)
system.cpu.commit.numCommittedDist::4         2892934      0.57%     91.44% # Number of insts commited each cycle (Count)
system.cpu.commit.numCommittedDist::5         4339243      0.85%     92.29% # Number of insts commited each cycle (Count)
system.cpu.commit.numCommittedDist::6         3050089      0.60%     92.89% # Number of insts commited each cycle (Count)
system.cpu.commit.numCommittedDist::7         6078911      1.19%     94.07% # Number of insts commited each cycle (Count)
system.cpu.commit.numCommittedDist::8        30316747      5.93%    100.00% # Number of insts commited each cycle (Count)
system.cpu.commit.numCommittedDist::overflows            0      0.00%    100.00% # Number of insts commited each cycle (Count)
system.cpu.commit.numCommittedDist::min_value            0                       # Number of insts commited each cycle (Count)
system.cpu.commit.numCommittedDist::max_value            8                       # Number of insts commited each cycle (Count)
system.cpu.commit.numCommittedDist::total    511609973                       # Number of insts commited each cycle (Count)
system.cpu.commit.amos                              0                       # Number of atomic instructions committed (Count)
system.cpu.commit.membars                         570                       # Number of memory barriers committed (Count)
system.cpu.commit.functionCalls              12411929                       # Number of function calls committed. (Count)
system.cpu.commit.committedInstType_0::No_OpClass        10435      0.00%      0.00% # Class of committed instruction (Count)
system.cpu.commit.committedInstType_0::IntAlu    254575864     59.97%     59.97% # Class of committed instruction (Count)
system.cpu.commit.committedInstType_0::IntMult      1789651      0.42%     60.40% # Class of committed instruction (Count)
system.cpu.commit.committedInstType_0::IntDiv         3670      0.00%     60.40% # Class of committed instruction (Count)
system.cpu.commit.committedInstType_0::FloatAdd      8023126      1.89%     62.29% # Class of committed instruction (Count)
system.cpu.commit.committedInstType_0::FloatCmp            0      0.00%     62.29% # Class of committed instruction (Count)
system.cpu.commit.committedInstType_0::FloatCvt          384      0.00%     62.29% # Class of committed instruction (Count)
system.cpu.commit.committedInstType_0::FloatMult            0      0.00%     62.29% # Class of committed instruction (Count)
system.cpu.commit.committedInstType_0::FloatMultAcc            0      0.00%     62.29% # Class of committed instruction (Count)
system.cpu.commit.committedInstType_0::FloatDiv            0      0.00%     62.29% # Class of committed instruction (Count)
system.cpu.commit.committedInstType_0::FloatMisc            0      0.00%     62.29% # Class of committed instruction (Count)
system.cpu.commit.committedInstType_0::FloatSqrt            0      0.00%     62.29% # Class of committed instruction (Count)
system.cpu.commit.committedInstType_0::SimdAdd           20      0.00%     62.29% # Class of committed instruction (Count)
system.cpu.commit.committedInstType_0::SimdAddAcc            0      0.00%     62.29% # Class of committed instruction (Count)
system.cpu.commit.committedInstType_0::SimdAlu      2978556      0.70%     62.99% # Class of committed instruction (Count)
system.cpu.commit.committedInstType_0::SimdCmp            0      0.00%     62.99% # Class of committed instruction (Count)
system.cpu.commit.committedInstType_0::SimdCvt          256      0.00%     62.99% # Class of committed instruction (Count)
system.cpu.commit.committedInstType_0::SimdMisc      2676791      0.63%     63.62% # Class of committed instruction (Count)
system.cpu.commit.committedInstType_0::SimdMult            0      0.00%     63.62% # Class of committed instruction (Count)
system.cpu.commit.committedInstType_0::SimdMultAcc            0      0.00%     63.62% # Class of committed instruction (Count)
system.cpu.commit.committedInstType_0::SimdMatMultAcc            0      0.00%     63.62% # Class of committed instruction (Count)
system.cpu.commit.committedInstType_0::SimdShift           30      0.00%     63.62% # Class of committed instruction (Count)
system.cpu.commit.committedInstType_0::SimdShiftAcc            0      0.00%     63.62% # Class of committed instruction (Count)
system.cpu.commit.committedInstType_0::SimdDiv            0      0.00%     63.62% # Class of committed instruction (Count)
system.cpu.commit.committedInstType_0::SimdSqrt            0      0.00%     63.62% # Class of committed instruction (Count)
system.cpu.commit.committedInstType_0::SimdFloatAdd      1484544      0.35%     63.97% # Class of committed instruction (Count)
system.cpu.commit.committedInstType_0::SimdFloatAlu            0      0.00%     63.97% # Class of committed instruction (Count)
system.cpu.commit.committedInstType_0::SimdFloatCmp            0      0.00%     63.97% # Class of committed instruction (Count)
system.cpu.commit.committedInstType_0::SimdFloatCvt      3857664      0.91%     64.88% # Class of committed instruction (Count)
system.cpu.commit.committedInstType_0::SimdFloatDiv       300288      0.07%     64.95% # Class of committed instruction (Count)
system.cpu.commit.committedInstType_0::SimdFloatMisc            0      0.00%     64.95% # Class of committed instruction (Count)
system.cpu.commit.committedInstType_0::SimdFloatMult      1184256      0.28%     65.23% # Class of committed instruction (Count)
system.cpu.commit.committedInstType_0::SimdFloatMultAcc            0      0.00%     65.23% # Class of committed instruction (Count)
system.cpu.commit.committedInstType_0::SimdFloatMatMultAcc            0      0.00%     65.23% # Class of committed instruction (Count)
system.cpu.commit.committedInstType_0::SimdFloatSqrt            0      0.00%     65.23% # Class of committed instruction (Count)
system.cpu.commit.committedInstType_0::SimdReduceAdd            0      0.00%     65.23% # Class of committed instruction (Count)
system.cpu.commit.committedInstType_0::SimdReduceAlu            0      0.00%     65.23% # Class of committed instruction (Count)
system.cpu.commit.committedInstType_0::SimdReduceCmp            0      0.00%     65.23% # Class of committed instruction (Count)
system.cpu.commit.committedInstType_0::SimdFloatReduceAdd            0      0.00%     65.23% # Class of committed instruction (Count)
system.cpu.commit.committedInstType_0::SimdFloatReduceCmp            0      0.00%     65.23% # Class of committed instruction (Count)
system.cpu.commit.committedInstType_0::SimdAes            0      0.00%     65.23% # Class of committed instruction (Count)
system.cpu.commit.committedInstType_0::SimdAesMix            0      0.00%     65.23% # Class of committed instruction (Count)
system.cpu.commit.committedInstType_0::SimdSha1Hash            0      0.00%     65.23% # Class of committed instruction (Count)
system.cpu.commit.committedInstType_0::SimdSha1Hash2            0      0.00%     65.23% # Class of committed instruction (Count)
system.cpu.commit.committedInstType_0::SimdSha256Hash            0      0.00%     65.23% # Class of committed instruction (Count)
system.cpu.commit.committedInstType_0::SimdSha256Hash2            0      0.00%     65.23% # Class of committed instruction (Count)
system.cpu.commit.committedInstType_0::SimdShaSigma2            0      0.00%     65.23% # Class of committed instruction (Count)
system.cpu.commit.committedInstType_0::SimdShaSigma3            0      0.00%     65.23% # Class of committed instruction (Count)
system.cpu.commit.committedInstType_0::SimdPredAlu            0      0.00%     65.23% # Class of committed instruction (Count)
system.cpu.commit.committedInstType_0::Matrix            0      0.00%     65.23% # Class of committed instruction (Count)
system.cpu.commit.committedInstType_0::MatrixMov            0      0.00%     65.23% # Class of committed instruction (Count)
system.cpu.commit.committedInstType_0::MatrixOP            0      0.00%     65.23% # Class of committed instruction (Count)
system.cpu.commit.committedInstType_0::MemRead     83276046     19.62%     84.85% # Class of committed instruction (Count)
system.cpu.commit.committedInstType_0::MemWrite     52122257     12.28%     97.13% # Class of committed instruction (Count)
system.cpu.commit.committedInstType_0::FloatMemRead      9213209      2.17%     99.30% # Class of committed instruction (Count)
system.cpu.commit.committedInstType_0::FloatMemWrite      2990478      0.70%    100.00% # Class of committed instruction (Count)
system.cpu.commit.committedInstType_0::IprAccess            0      0.00%    100.00% # Class of committed instruction (Count)
system.cpu.commit.committedInstType_0::InstPrefetch            0      0.00%    100.00% # Class of committed instruction (Count)
system.cpu.commit.committedInstType_0::SimdUnitStrideLoad            0      0.00%    100.00% # Class of committed instruction (Count)
system.cpu.commit.committedInstType_0::SimdUnitStrideStore            0      0.00%    100.00% # Class of committed instruction (Count)
system.cpu.commit.committedInstType_0::SimdUnitStrideMaskLoad            0      0.00%    100.00% # Class of committed instruction (Count)
system.cpu.commit.committedInstType_0::SimdUnitStrideMaskStore            0      0.00%    100.00% # Class of committed instruction (Count)
system.cpu.commit.committedInstType_0::SimdStridedLoad            0      0.00%    100.00% # Class of committed instruction (Count)
system.cpu.commit.committedInstType_0::SimdStridedStore            0      0.00%    100.00% # Class of committed instruction (Count)
system.cpu.commit.committedInstType_0::SimdIndexedLoad            0      0.00%    100.00% # Class of committed instruction (Count)
system.cpu.commit.committedInstType_0::SimdIndexedStore            0      0.00%    100.00% # Class of committed instruction (Count)
system.cpu.commit.committedInstType_0::SimdWholeRegisterLoad            0      0.00%    100.00% # Class of committed instruction (Count)
system.cpu.commit.committedInstType_0::SimdWholeRegisterStore            0      0.00%    100.00% # Class of committed instruction (Count)
system.cpu.commit.committedInstType_0::SimdUnitStrideFaultOnlyFirstLoad            0      0.00%    100.00% # Class of committed instruction (Count)
system.cpu.commit.committedInstType_0::SimdUnitStrideSegmentedLoad            0      0.00%    100.00% # Class of committed instruction (Count)
system.cpu.commit.committedInstType_0::SimdUnitStrideSegmentedStore            0      0.00%    100.00% # Class of committed instruction (Count)
system.cpu.commit.committedInstType_0::SimdExt            0      0.00%    100.00% # Class of committed instruction (Count)
system.cpu.commit.committedInstType_0::SimdFloatExt            0      0.00%    100.00% # Class of committed instruction (Count)
system.cpu.commit.committedInstType_0::SimdConfig            0      0.00%    100.00% # Class of committed instruction (Count)
system.cpu.commit.committedInstType_0::total    424487525                       # Class of committed instruction (Count)
system.cpu.commit.commitEligibleSamples      30316747                       # number cycles where commit BW limit reached (Cycle)
system.cpu.commitStats0.numInsts            250461678                       # Number of instructions committed (thread level) (Count)
system.cpu.commitStats0.numOps              424487525                       # Number of ops (including micro ops) committed (thread level) (Count)
system.cpu.commitStats0.numInstsNotNOP      250461678                       # Number of instructions committed excluding NOPs or prefetches (Count)
system.cpu.commitStats0.numOpsNotNOP        424487525                       # Number of Ops (including micro ops) Simulated (Count)
system.cpu.commitStats0.cpi                  2.065054                       # CPI: cycles per instruction (thread level) ((Cycle/Count))
system.cpu.commitStats0.ipc                  0.484249                       # IPC: instructions per cycle (thread level) ((Count/Cycle))
system.cpu.commitStats0.numMemRefs          147601990                       # Number of memory references committed (Count)
system.cpu.commitStats0.numFpInsts           32709619                       # Number of float instructions (Count)
system.cpu.commitStats0.numIntInsts         406548996                       # Number of integer instructions (Count)
system.cpu.commitStats0.numLoadInsts         92489255                       # Number of load instructions (Count)
system.cpu.commitStats0.numStoreInsts        55112735                       # Number of store instructions (Count)
system.cpu.commitStats0.numVecInsts                 0                       # Number of vector instructions (Count)
system.cpu.commitStats0.committedInstType::No_OpClass        10435      0.00%      0.00% # Class of committed instruction. (Count)
system.cpu.commitStats0.committedInstType::IntAlu    254575864     59.97%     59.97% # Class of committed instruction. (Count)
system.cpu.commitStats0.committedInstType::IntMult      1789651      0.42%     60.40% # Class of committed instruction. (Count)
system.cpu.commitStats0.committedInstType::IntDiv         3670      0.00%     60.40% # Class of committed instruction. (Count)
system.cpu.commitStats0.committedInstType::FloatAdd      8023126      1.89%     62.29% # Class of committed instruction. (Count)
system.cpu.commitStats0.committedInstType::FloatCmp            0      0.00%     62.29% # Class of committed instruction. (Count)
system.cpu.commitStats0.committedInstType::FloatCvt          384      0.00%     62.29% # Class of committed instruction. (Count)
system.cpu.commitStats0.committedInstType::FloatMult            0      0.00%     62.29% # Class of committed instruction. (Count)
system.cpu.commitStats0.committedInstType::FloatMultAcc            0      0.00%     62.29% # Class of committed instruction. (Count)
system.cpu.commitStats0.committedInstType::FloatDiv            0      0.00%     62.29% # Class of committed instruction. (Count)
system.cpu.commitStats0.committedInstType::FloatMisc            0      0.00%     62.29% # Class of committed instruction. (Count)
system.cpu.commitStats0.committedInstType::FloatSqrt            0      0.00%     62.29% # Class of committed instruction. (Count)
system.cpu.commitStats0.committedInstType::SimdAdd           20      0.00%     62.29% # Class of committed instruction. (Count)
system.cpu.commitStats0.committedInstType::SimdAddAcc            0      0.00%     62.29% # Class of committed instruction. (Count)
system.cpu.commitStats0.committedInstType::SimdAlu      2978556      0.70%     62.99% # Class of committed instruction. (Count)
system.cpu.commitStats0.committedInstType::SimdCmp            0      0.00%     62.99% # Class of committed instruction. (Count)
system.cpu.commitStats0.committedInstType::SimdCvt          256      0.00%     62.99% # Class of committed instruction. (Count)
system.cpu.commitStats0.committedInstType::SimdMisc      2676791      0.63%     63.62% # Class of committed instruction. (Count)
system.cpu.commitStats0.committedInstType::SimdMult            0      0.00%     63.62% # Class of committed instruction. (Count)
system.cpu.commitStats0.committedInstType::SimdMultAcc            0      0.00%     63.62% # Class of committed instruction. (Count)
system.cpu.commitStats0.committedInstType::SimdMatMultAcc            0      0.00%     63.62% # Class of committed instruction. (Count)
system.cpu.commitStats0.committedInstType::SimdShift           30      0.00%     63.62% # Class of committed instruction. (Count)
system.cpu.commitStats0.committedInstType::SimdShiftAcc            0      0.00%     63.62% # Class of committed instruction. (Count)
system.cpu.commitStats0.committedInstType::SimdDiv            0      0.00%     63.62% # Class of committed instruction. (Count)
system.cpu.commitStats0.committedInstType::SimdSqrt            0      0.00%     63.62% # Class of committed instruction. (Count)
system.cpu.commitStats0.committedInstType::SimdFloatAdd      1484544      0.35%     63.97% # Class of committed instruction. (Count)
system.cpu.commitStats0.committedInstType::SimdFloatAlu            0      0.00%     63.97% # Class of committed instruction. (Count)
system.cpu.commitStats0.committedInstType::SimdFloatCmp            0      0.00%     63.97% # Class of committed instruction. (Count)
system.cpu.commitStats0.committedInstType::SimdFloatCvt      3857664      0.91%     64.88% # Class of committed instruction. (Count)
system.cpu.commitStats0.committedInstType::SimdFloatDiv       300288      0.07%     64.95% # Class of committed instruction. (Count)
system.cpu.commitStats0.committedInstType::SimdFloatMisc            0      0.00%     64.95% # Class of committed instruction. (Count)
system.cpu.commitStats0.committedInstType::SimdFloatMult      1184256      0.28%     65.23% # Class of committed instruction. (Count)
system.cpu.commitStats0.committedInstType::SimdFloatMultAcc            0      0.00%     65.23% # Class of committed instruction. (Count)
system.cpu.commitStats0.committedInstType::SimdFloatMatMultAcc            0      0.00%     65.23% # Class of committed instruction. (Count)
system.cpu.commitStats0.committedInstType::SimdFloatSqrt            0      0.00%     65.23% # Class of committed instruction. (Count)
system.cpu.commitStats0.committedInstType::SimdReduceAdd            0      0.00%     65.23% # Class of committed instruction. (Count)
system.cpu.commitStats0.committedInstType::SimdReduceAlu            0      0.00%     65.23% # Class of committed instruction. (Count)
system.cpu.commitStats0.committedInstType::SimdReduceCmp            0      0.00%     65.23% # Class of committed instruction. (Count)
system.cpu.commitStats0.committedInstType::SimdFloatReduceAdd            0      0.00%     65.23% # Class of committed instruction. (Count)
system.cpu.commitStats0.committedInstType::SimdFloatReduceCmp            0      0.00%     65.23% # Class of committed instruction. (Count)
system.cpu.commitStats0.committedInstType::SimdAes            0      0.00%     65.23% # Class of committed instruction. (Count)
system.cpu.commitStats0.committedInstType::SimdAesMix            0      0.00%     65.23% # Class of committed instruction. (Count)
system.cpu.commitStats0.committedInstType::SimdSha1Hash            0      0.00%     65.23% # Class of committed instruction. (Count)
system.cpu.commitStats0.committedInstType::SimdSha1Hash2            0      0.00%     65.23% # Class of committed instruction. (Count)
system.cpu.commitStats0.committedInstType::SimdSha256Hash            0      0.00%     65.23% # Class of committed instruction. (Count)
system.cpu.commitStats0.committedInstType::SimdSha256Hash2            0      0.00%     65.23% # Class of committed instruction. (Count)
system.cpu.commitStats0.committedInstType::SimdShaSigma2            0      0.00%     65.23% # Class of committed instruction. (Count)
system.cpu.commitStats0.committedInstType::SimdShaSigma3            0      0.00%     65.23% # Class of committed instruction. (Count)
system.cpu.commitStats0.committedInstType::SimdPredAlu            0      0.00%     65.23% # Class of committed instruction. (Count)
system.cpu.commitStats0.committedInstType::Matrix            0      0.00%     65.23% # Class of committed instruction. (Count)
system.cpu.commitStats0.committedInstType::MatrixMov            0      0.00%     65.23% # Class of committed instruction. (Count)
system.cpu.commitStats0.committedInstType::MatrixOP            0      0.00%     65.23% # Class of committed instruction. (Count)
system.cpu.commitStats0.committedInstType::MemRead     83276046     19.62%     84.85% # Class of committed instruction. (Count)
system.cpu.commitStats0.committedInstType::MemWrite     52122257     12.28%     97.13% # Class of committed instruction. (Count)
system.cpu.commitStats0.committedInstType::FloatMemRead      9213209      2.17%     99.30% # Class of committed instruction. (Count)
system.cpu.commitStats0.committedInstType::FloatMemWrite      2990478      0.70%    100.00% # Class of committed instruction. (Count)
system.cpu.commitStats0.committedInstType::IprAccess            0      0.00%    100.00% # Class of committed instruction. (Count)
system.cpu.commitStats0.committedInstType::InstPrefetch            0      0.00%    100.00% # Class of committed instruction. (Count)
system.cpu.commitStats0.committedInstType::SimdUnitStrideLoad            0      0.00%    100.00% # Class of committed instruction. (Count)
system.cpu.commitStats0.committedInstType::SimdUnitStrideStore            0      0.00%    100.00% # Class of committed instruction. (Count)
system.cpu.commitStats0.committedInstType::SimdUnitStrideMaskLoad            0      0.00%    100.00% # Class of committed instruction. (Count)
system.cpu.commitStats0.committedInstType::SimdUnitStrideMaskStore            0      0.00%    100.00% # Class of committed instruction. (Count)
system.cpu.commitStats0.committedInstType::SimdStridedLoad            0      0.00%    100.00% # Class of committed instruction. (Count)
system.cpu.commitStats0.committedInstType::SimdStridedStore            0      0.00%    100.00% # Class of committed instruction. (Count)
system.cpu.commitStats0.committedInstType::SimdIndexedLoad            0      0.00%    100.00% # Class of committed instruction. (Count)
system.cpu.commitStats0.committedInstType::SimdIndexedStore            0      0.00%    100.00% # Class of committed instruction. (Count)
system.cpu.commitStats0.committedInstType::SimdWholeRegisterLoad            0      0.00%    100.00% # Class of committed instruction. (Count)
system.cpu.commitStats0.committedInstType::SimdWholeRegisterStore            0      0.00%    100.00% # Class of committed instruction. (Count)
system.cpu.commitStats0.committedInstType::SimdUnitStrideFaultOnlyFirstLoad            0      0.00%    100.00% # Class of committed instruction. (Count)
system.cpu.commitStats0.committedInstType::SimdUnitStrideSegmentedLoad            0      0.00%    100.00% # Class of committed instruction. (Count)
system.cpu.commitStats0.committedInstType::SimdUnitStrideSegmentedStore            0      0.00%    100.00% # Class of committed instruction. (Count)
system.cpu.commitStats0.committedInstType::SimdExt            0      0.00%    100.00% # Class of committed instruction. (Count)
system.cpu.commitStats0.committedInstType::SimdFloatExt            0      0.00%    100.00% # Class of committed instruction. (Count)
system.cpu.commitStats0.committedInstType::SimdConfig            0      0.00%    100.00% # Class of committed instruction. (Count)
system.cpu.commitStats0.committedInstType::total    424487525                       # Class of committed instruction. (Count)
system.cpu.commitStats0.committedControl::IsControl     33138118                       # Class of control type instructions committed (Count)
system.cpu.commitStats0.committedControl::IsDirectControl     20412052                       # Class of control type instructions committed (Count)
system.cpu.commitStats0.committedControl::IsIndirectControl     12726066                       # Class of control type instructions committed (Count)
system.cpu.commitStats0.committedControl::IsCondControl      7884566                       # Class of control type instructions committed (Count)
system.cpu.commitStats0.committedControl::IsUncondControl     25253552                       # Class of control type instructions committed (Count)
system.cpu.commitStats0.committedControl::IsCall     12411929                       # Class of control type instructions committed (Count)
system.cpu.commitStats0.committedControl::IsReturn     12411925                       # Class of control type instructions committed (Count)
system.cpu.dcache.demandHits::cpu.data       86082473                       # number of demand (read+write) hits (Count)
system.cpu.dcache.demandHits::total          86082473                       # number of demand (read+write) hits (Count)
system.cpu.dcache.overallHits::cpu.data      86082473                       # number of overall hits (Count)
system.cpu.dcache.overallHits::total         86082473                       # number of overall hits (Count)
system.cpu.dcache.demandMisses::cpu.data      1821379                       # number of demand (read+write) misses (Count)
system.cpu.dcache.demandMisses::total         1821379                       # number of demand (read+write) misses (Count)
system.cpu.dcache.overallMisses::cpu.data      1821379                       # number of overall misses (Count)
system.cpu.dcache.overallMisses::total        1821379                       # number of overall misses (Count)
system.cpu.dcache.demandMissLatency::cpu.data 133133436011                       # number of demand (read+write) miss ticks (Tick)
system.cpu.dcache.demandMissLatency::total 133133436011                       # number of demand (read+write) miss ticks (Tick)
system.cpu.dcache.overallMissLatency::cpu.data 133133436011                       # number of overall miss ticks (Tick)
system.cpu.dcache.overallMissLatency::total 133133436011                       # number of overall miss ticks (Tick)
system.cpu.dcache.demandAccesses::cpu.data     87903852                       # number of demand (read+write) accesses (Count)
system.cpu.dcache.demandAccesses::total      87903852                       # number of demand (read+write) accesses (Count)
system.cpu.dcache.overallAccesses::cpu.data     87903852                       # number of overall (read+write) accesses (Count)
system.cpu.dcache.overallAccesses::total     87903852                       # number of overall (read+write) accesses (Count)
system.cpu.dcache.demandMissRate::cpu.data     0.020720                       # miss rate for demand accesses (Ratio)
system.cpu.dcache.demandMissRate::total      0.020720                       # miss rate for demand accesses (Ratio)
system.cpu.dcache.overallMissRate::cpu.data     0.020720                       # miss rate for overall accesses (Ratio)
system.cpu.dcache.overallMissRate::total     0.020720                       # miss rate for overall accesses (Ratio)
system.cpu.dcache.demandAvgMissLatency::cpu.data 73094.856156                       # average overall miss latency in ticks ((Tick/Count))
system.cpu.dcache.demandAvgMissLatency::total 73094.856156                       # average overall miss latency in ticks ((Tick/Count))
system.cpu.dcache.overallAvgMissLatency::cpu.data 73094.856156                       # average overall miss latency ((Tick/Count))
system.cpu.dcache.overallAvgMissLatency::total 73094.856156                       # average overall miss latency ((Tick/Count))
system.cpu.dcache.blockedCycles::no_mshrs      1335409                       # number of cycles access was blocked (Cycle)
system.cpu.dcache.blockedCycles::no_targets        20742                       # number of cycles access was blocked (Cycle)
system.cpu.dcache.blockedCauses::no_mshrs         1097                       # number of times access was blocked (Count)
system.cpu.dcache.blockedCauses::no_targets           34                       # number of times access was blocked (Count)
system.cpu.dcache.avgBlocked::no_mshrs    1217.328168                       # average number of cycles each access was blocked ((Cycle/Count))
system.cpu.dcache.avgBlocked::no_targets   610.058824                       # average number of cycles each access was blocked ((Cycle/Count))
system.cpu.dcache.writebacks::writebacks      1146374                       # number of writebacks (Count)
system.cpu.dcache.writebacks::total           1146374                       # number of writebacks (Count)
system.cpu.dcache.demandMshrHits::cpu.data        27632                       # number of demand (read+write) MSHR hits (Count)
system.cpu.dcache.demandMshrHits::total         27632                       # number of demand (read+write) MSHR hits (Count)
system.cpu.dcache.overallMshrHits::cpu.data        27632                       # number of overall MSHR hits (Count)
[...]
system.l2.ReadSharedReq.accesses::total       1670027                       # number of ReadSharedReq accesses(hits+misses) (Count)
system.l2.ReadSharedReq.missRate::cpu.data     0.095834                       # miss rate for ReadSharedReq accesses (Ratio)
system.l2.ReadSharedReq.missRate::total      0.095834                       # miss rate for ReadSharedReq accesses (Ratio)
system.l2.ReadSharedReq.avgMissLatency::cpu.data 395543.962211                       # average ReadSharedReq miss latency ((Tick/Count))
system.l2.ReadSharedReq.avgMissLatency::total 395543.962211                       # average ReadSharedReq miss latency ((Tick/Count))
system.l2.ReadSharedReq.mshrMisses::cpu.data       160045                       # number of ReadSharedReq MSHR misses (Count)
system.l2.ReadSharedReq.mshrMisses::total       160045                       # number of ReadSharedReq MSHR misses (Count)
system.l2.ReadSharedReq.mshrMissLatency::cpu.data  62278063122                       # number of ReadSharedReq MSHR miss ticks (Tick)
system.l2.ReadSharedReq.mshrMissLatency::total  62278063122                       # number of ReadSharedReq MSHR miss ticks (Tick)
system.l2.ReadSharedReq.mshrMissRate::cpu.data     0.095834                       # mshr miss rate for ReadSharedReq accesses (Ratio)
system.l2.ReadSharedReq.mshrMissRate::total     0.095834                       # mshr miss rate for ReadSharedReq accesses (Ratio)
system.l2.ReadSharedReq.avgMshrMissLatency::cpu.data 389128.452135                       # average ReadSharedReq mshr miss latency ((Tick/Count))
system.l2.ReadSharedReq.avgMshrMissLatency::total 389128.452135                       # average ReadSharedReq mshr miss latency ((Tick/Count))
system.l2.UpgradeReq.hits::cpu.data                 3                       # number of UpgradeReq hits (Count)
system.l2.UpgradeReq.hits::total                    3                       # number of UpgradeReq hits (Count)
system.l2.UpgradeReq.accesses::cpu.data             3                       # number of UpgradeReq accesses(hits+misses) (Count)
system.l2.UpgradeReq.accesses::total                3                       # number of UpgradeReq accesses(hits+misses) (Count)
system.l2.WritebackClean.hits::writebacks         2448                       # number of WritebackClean hits (Count)
system.l2.WritebackClean.hits::total             2448                       # number of WritebackClean hits (Count)
system.l2.WritebackClean.accesses::writebacks         2448                       # number of WritebackClean accesses(hits+misses) (Count)
system.l2.WritebackClean.accesses::total         2448                       # number of WritebackClean accesses(hits+misses) (Count)
system.l2.WritebackDirty.hits::writebacks      1146374                       # number of WritebackDirty hits (Count)
system.l2.WritebackDirty.hits::total          1146374                       # number of WritebackDirty hits (Count)
system.l2.WritebackDirty.accesses::writebacks      1146374                       # number of WritebackDirty accesses(hits+misses) (Count)
system.l2.WritebackDirty.accesses::total      1146374                       # number of WritebackDirty accesses(hits+misses) (Count)
system.l2.power_state.pwrStateResidencyTicks::UNDEFINED 161888851201                       # Cumulative time (in ticks) in various power states (Tick)
system.l2.tags.tagsInUse                 31547.057548                       # Average ticks per tags in use ((Tick/Count))
system.l2.tags.totalRefs                      3592194                       # Total number of references to valid blocks. (Count)
system.l2.tags.sampledRefs                     258947                       # Sample count of references to valid blocks. (Count)
system.l2.tags.avgRefs                      13.872314                       # Average number of references to valid blocks. ((Count/Count))
system.l2.tags.warmupTick                      430000                       # The tick when the warmup percentage was hit. (Tick)
system.l2.tags.occupancies::writebacks      49.682248                       # Average occupied blocks per tick, per requestor ((Count/Tick))
system.l2.tags.occupancies::cpu.inst       172.323838                       # Average occupied blocks per tick, per requestor ((Count/Tick))
system.l2.tags.occupancies::cpu.data     31325.051462                       # Average occupied blocks per tick, per requestor ((Count/Tick))
system.l2.tags.avgOccs::writebacks           0.001516                       # Average percentage of cache occupancy ((Ratio/Tick))
system.l2.tags.avgOccs::cpu.inst             0.005259                       # Average percentage of cache occupancy ((Ratio/Tick))
system.l2.tags.avgOccs::cpu.data             0.955965                       # Average percentage of cache occupancy ((Ratio/Tick))
system.l2.tags.avgOccs::total                0.962740                       # Average percentage of cache occupancy ((Ratio/Tick))
system.l2.tags.occupanciesTaskId::1024          32768                       # Occupied blocks per task id (Count)
system.l2.tags.ageTaskId_1024::0                   46                       # Occupied blocks per task id, per block age (Count)
system.l2.tags.ageTaskId_1024::1                  297                       # Occupied blocks per task id, per block age (Count)
system.l2.tags.ageTaskId_1024::2                  493                       # Occupied blocks per task id, per block age (Count)
system.l2.tags.ageTaskId_1024::3                 2223                       # Occupied blocks per task id, per block age (Count)
system.l2.tags.ageTaskId_1024::4                29709                       # Occupied blocks per task id, per block age (Count)
system.l2.tags.ratioOccsTaskId::1024                1                       # Ratio of occupied blocks and all blocks, per task id (Ratio)
system.l2.tags.tagAccesses                   28996555                       # Number of tag accesses (Count)
system.l2.tags.dataAccesses                  28996555                       # Number of data accesses (Count)
system.l2.tags.power_state.pwrStateResidencyTicks::UNDEFINED 161888851201                       # Cumulative time (in ticks) in various power states (Tick)
system.mem_ctrls.bytesRead::cpu.inst           151744                       # Number of bytes read from this memory (Byte)
system.mem_ctrls.bytesRead::cpu.data         16379648                       # Number of bytes read from this memory (Byte)
system.mem_ctrls.bytesRead::total            16531392                       # Number of bytes read from this memory (Byte)
system.mem_ctrls.bytesInstRead::cpu.inst       151744                       # Number of instructions bytes read from this memory (Byte)
system.mem_ctrls.bytesInstRead::total          151744                       # Number of instructions bytes read from this memory (Byte)
system.mem_ctrls.bytesWritten::writebacks      6159104                       # Number of bytes written to this memory (Byte)
system.mem_ctrls.bytesWritten::total          6159104                       # Number of bytes written to this memory (Byte)
system.mem_ctrls.numReads::cpu.inst              2371                       # Number of read requests responded to by this memory (Count)
system.mem_ctrls.numReads::cpu.data            255932                       # Number of read requests responded to by this memory (Count)
system.mem_ctrls.numReads::total               258303                       # Number of read requests responded to by this memory (Count)
system.mem_ctrls.numWrites::writebacks          96236                       # Number of write requests responded to by this memory (Count)
system.mem_ctrls.numWrites::total               96236                       # Number of write requests responded to by this memory (Count)
system.mem_ctrls.bwRead::cpu.inst              937334                       # Total read bandwidth from this memory ((Byte/Second))
system.mem_ctrls.bwRead::cpu.data           101178357                       # Total read bandwidth from this memory ((Byte/Second))
system.mem_ctrls.bwRead::total              102115692                       # Total read bandwidth from this memory ((Byte/Second))
system.mem_ctrls.bwInstRead::cpu.inst          937334                       # Instruction read bandwidth from this memory ((Byte/Second))
system.mem_ctrls.bwInstRead::total             937334                       # Instruction read bandwidth from this memory ((Byte/Second))
system.mem_ctrls.bwWrite::writebacks         38045263                       # Write bandwidth from this memory ((Byte/Second))
system.mem_ctrls.bwWrite::total              38045263                       # Write bandwidth from this memory ((Byte/Second))
system.mem_ctrls.bwTotal::writebacks         38045263                       # Total bandwidth to/from this memory ((Byte/Second))
system.mem_ctrls.bwTotal::cpu.inst             937334                       # Total bandwidth to/from this memory ((Byte/Second))
system.mem_ctrls.bwTotal::cpu.data          101178357                       # Total bandwidth to/from this memory ((Byte/Second))
system.mem_ctrls.bwTotal::total             140160955                       # Total bandwidth to/from this memory ((Byte/Second))
system.mem_ctrls.power_state.pwrStateResidencyTicks::UNDEFINED 161888851201                       # Cumulative time (in ticks) in various power states (Tick)
system.membus.transDist::ReadResp              162416                       # Transaction distribution (Count)
system.membus.transDist::WritebackDirty         96236                       # Transaction distribution (Count)
system.membus.transDist::CleanEvict            128993                       # Transaction distribution (Count)
system.membus.transDist::ReadExReq              95887                       # Transaction distribution (Count)
system.membus.transDist::ReadExResp             95887                       # Transaction distribution (Count)
system.membus.transDist::ReadSharedReq         162416                       # Transaction distribution (Count)
system.membus.pktCount_system.l2.mem_side_port::system.mem_ctrls.port       741835                       # Packet count per connected requestor and responder (Count)
system.membus.pktCount_system.l2.mem_side_port::total       741835                       # Packet count per connected requestor and responder (Count)
system.membus.pktCount::total                  741835                       # Packet count per connected requestor and responder (Count)
system.membus.pktSize_system.l2.mem_side_port::system.mem_ctrls.port     22690496                       # Cumulative packet size per connected requestor and responder (Byte)
system.membus.pktSize_system.l2.mem_side_port::total     22690496                       # Cumulative packet size per connected requestor and responder (Byte)
system.membus.pktSize::total                 22690496                       # Cumulative packet size per connected requestor and responder (Byte)
system.membus.snoops                                0                       # Total snoops (Count)
system.membus.snoopTraffic                          0                       # Total snoop traffic (Byte)
system.membus.snoopFanout::samples             258303                       # Request fanout histogram (Count)
system.membus.snoopFanout::mean                     0                       # Request fanout histogram (Count)
system.membus.snoopFanout::stdev                    0                       # Request fanout histogram (Count)
system.membus.snoopFanout::underflows               0      0.00%      0.00% # Request fanout histogram (Count)
system.membus.snoopFanout::0                   258303    100.00%    100.00% # Request fanout histogram (Count)
system.membus.snoopFanout::1                        0      0.00%    100.00% # Request fanout histogram (Count)
system.membus.snoopFanout::overflows                0      0.00%    100.00% # Request fanout histogram (Count)
system.membus.snoopFanout::min_value                0                       # Request fanout histogram (Count)
system.membus.snoopFanout::max_value                0                       # Request fanout histogram (Count)
system.membus.snoopFanout::total               258303                       # Request fanout histogram (Count)
system.membus.power_state.pwrStateResidencyTicks::UNDEFINED 161888851201                       # Cumulative time (in ticks) in various power states (Tick)
system.membus.reqLayer2.occupancy          2706444932                       # Layer occupancy (ticks) (Tick)
system.membus.reqLayer2.utilization               0.0                       # Layer utilization (Ratio)
system.membus.respLayer1.occupancy         3532467227                       # Layer occupancy (ticks) (Tick)
system.membus.respLayer1.utilization              0.0                       # Layer utilization (Ratio)
system.membus.snoop_filter.totRequests         483532                       # Total number of requests made to the snoop filter. (Count)
system.membus.snoop_filter.hitSingleRequests       225229                       # Number of requests hitting in the snoop filter with a single holder of the requested data. (Count)
system.membus.snoop_filter.hitMultiRequests            0                       # Number of requests hitting in the snoop filter with multiple (>1) holders of the requested data. (Count)
system.membus.snoop_filter.totSnoops                0                       # Total number of snoops made to the snoop filter. (Count)
system.membus.snoop_filter.hitSingleSnoops            0                       # Number of snoops hitting in the snoop filter with a single holder of the requested data. (Count)
system.membus.snoop_filter.hitMultiSnoops            0                       # Number of snoops hitting in the snoop filter with multiple (>1) holders of the requested data. (Count)
system.tol2bus.transDist::ReadResp            1672996                       # Transaction distribution (Count)
system.tol2bus.transDist::WritebackDirty      1242610                       # Transaction distribution (Count)
system.tol2bus.transDist::WritebackClean         2453                       # Transaction distribution (Count)
system.tol2bus.transDist::CleanEvict           776802                       # Transaction distribution (Count)
system.tol2bus.transDist::UpgradeReq                3                       # Transaction distribution (Count)
system.tol2bus.transDist::UpgradeResp               3                       # Transaction distribution (Count)
system.tol2bus.transDist::ReadExReq            123718                       # Transaction distribution (Count)
system.tol2bus.transDist::ReadExResp           123718                       # Transaction distribution (Count)
system.tol2bus.transDist::ReadCleanReq           2970                       # Transaction distribution (Count)
system.tol2bus.transDist::ReadSharedReq       1670027                       # Transaction distribution (Count)
system.tol2bus.pktCount_system.cpu.icache.mem_side_port::system.l2.cpu_side_port         8385                       # Packet count per connected requestor and responder (Count)
system.tol2bus.pktCount_system.cpu.dcache.mem_side_port::system.l2.cpu_side_port      5380729                       # Packet count per connected requestor and responder (Count)
system.tol2bus.pktCount::total                5389114                       # Packet count per connected requestor and responder (Count)
system.tol2bus.pktSize_system.cpu.icache.mem_side_port::system.l2.cpu_side_port       346560                       # Cumulative packet size per connected requestor and responder (Byte)
system.tol2bus.pktSize_system.cpu.dcache.mem_side_port::system.l2.cpu_side_port    188167616                       # Cumulative packet size per connected requestor and responder (Byte)
system.tol2bus.pktSize::total               188514176                       # Cumulative packet size per connected requestor and responder (Byte)
system.tol2bus.snoops                          226186                       # Total snoops (Count)
system.tol2bus.snoopTraffic                   6159552                       # Total snoop traffic (Byte)
system.tol2bus.snoopFanout::samples           2022897                       # Request fanout histogram (Count)
system.tol2bus.snoopFanout::mean             0.000583                       # Request fanout histogram (Count)
system.tol2bus.snoopFanout::stdev            0.024145                       # Request fanout histogram (Count)
system.tol2bus.snoopFanout::underflows              0      0.00%      0.00% # Request fanout histogram (Count)
system.tol2bus.snoopFanout::0                 2021717     99.94%     99.94% # Request fanout histogram (Count)
system.tol2bus.snoopFanout::1                    1180      0.06%    100.00% # Request fanout histogram (Count)
system.tol2bus.snoopFanout::2                       0      0.00%    100.00% # Request fanout histogram (Count)
system.tol2bus.snoopFanout::3                       0      0.00%    100.00% # Request fanout histogram (Count)
system.tol2bus.snoopFanout::4                       0      0.00%    100.00% # Request fanout histogram (Count)
system.tol2bus.snoopFanout::overflows               0      0.00%    100.00% # Request fanout histogram (Count)
system.tol2bus.snoopFanout::min_value               0                       # Request fanout histogram (Count)
system.tol2bus.snoopFanout::max_value               1                       # Request fanout histogram (Count)
system.tol2bus.snoopFanout::total             2022897                       # Request fanout histogram (Count)
system.tol2bus.power_state.pwrStateResidencyTicks::UNDEFINED 161888851201                       # Cumulative time (in ticks) in various power states (Tick)
system.tol2bus.reqLayer0.occupancy         1843588154                       # Layer occupancy (ticks) (Tick)
system.tol2bus.reqLayer0.utilization              0.0                       # Layer utilization (Ratio)
system.tol2bus.respLayer0.occupancy           2788515                       # Layer occupancy (ticks) (Tick)
system.tol2bus.respLayer0.utilization             0.0                       # Layer utilization (Ratio)
system.tol2bus.respLayer1.occupancy        1684327494                       # Layer occupancy (ticks) (Tick)
system.tol2bus.respLayer1.utilization             0.0                       # Layer utilization (Ratio)
system.tol2bus.snoop_filter.totRequests       3592404                       # Total number of requests made to the snoop filter. (Count)
system.tol2bus.snoop_filter.hitSingleRequests      1795689                       # Number of requests hitting in the snoop filter with a single holder of the requested data. (Count)
system.tol2bus.snoop_filter.hitMultiRequests          219                       # Number of requests hitting in the snoop filter with multiple (>1) holders of the requested data. (Count)
system.tol2bus.snoop_filter.totSnoops             959                       # Total number of snoops made to the snoop filter. (Count)
system.tol2bus.snoop_filter.hitSingleSnoops          959                       # Number of snoops hitting in the snoop filter with a single holder of the requested data. (Count)
system.tol2bus.snoop_filter.hitMultiSnoops            0                       # Number of snoops hitting in the snoop filter with multiple (>1) holders of the requested data. (Count)
system.voltage_domain.voltage                       1                       # Voltage in Volts (Volt)
system.workload.inst.arm                            0                       # number of arm instructions executed (Count)
system.workload.inst.quiesce                        0                       # number of quiesce instructions executed (Count)

---------- End Simulation Statistics   ----------
