
---------- Begin Simulation Statistics ----------
simSeconds                                   3.369105                       # Number of seconds simulated (Second)
simTicks                                 3369104586208                       # Number of ticks simulated (Tick)
finalTick                                3369104586208                       # Number of ticks from beginning of simulation (restored from checkpoints and never reset) (Tick)
simFreq                                  1000000000000                       # The number of ticks per simulated second ((Tick/Second))
hostSeconds                                  20514.20                       # Real time elapsed on the host (Second)
hostTickRate                                164232833                       # The number of ticks simulated per host second (ticks/s) ((Tick/Second))
hostMemory                                    4903440                       # Number of bytes of host memory used (Byte)
simInsts                                   3985477993                       # Number of instructions simulated (Count)
simOps                                     6752832789                       # Number of ops (including micro ops) simulated (Count)
hostInstRate                                   194279                       # Simulator instruction rate (inst/s) ((Count/Second))
hostOpRate                                     329179                       # Simulator op (including micro ops) rate (op/s) ((Count/Second))
system.clk_domain.clock                          2500                       # Clock period in ticks (Tick)
system.cpu.numCycles                      10763912417                       # Number of cpu cycles simulated (Cycle)
system.cpu.cpi                               2.700783                       # CPI: cycles per instruction (core level) ((Cycle/Count))
system.cpu.ipc                               0.370263                       # IPC: instructions per cycle (core level) ((Count/Cycle))
system.cpu.numWorkItemsStarted                      0                       # Number of work items this cpu started (Count)
system.cpu.numWorkItemsCompleted                    0                       # Number of work items this cpu completed (Count)
system.cpu.instsAdded                      6762469807                       # Number of instructions added to the IQ (excludes non-spec) (Count)
system.cpu.nonSpecInstsAdded                     1721                       # Number of non-speculative instructions added to the IQ (Count)
system.cpu.instsIssued                     6760308625                       # Number of instructions issued (Count)
system.cpu.squashedInstsIssued                   5812                       # Number of squashed instructions issued (Count)
system.cpu.squashedInstsExamined              9638733                       # Number of squashed instructions iterated over during squash; mainly for profiling (Count)
system.cpu.squashedOperandsExamined          12076210                       # Number of squashed operands that are examined and possibly removed from graph (Count)
system.cpu.squashedNonSpecRemoved                 650                       # Number of squashed non-spec instructions that were removed (Count)
system.cpu.numIssuedDist::samples         10759308632                       # Number of insts issued each cycle (Count)
system.cpu.numIssuedDist::mean               0.628322                       # Number of insts issued each cycle (Count)
system.cpu.numIssuedDist::stdev              1.459321                       # Number of insts issued each cycle (Count)
system.cpu.numIssuedDist::underflows                0      0.00%      0.00% # Number of insts issued each cycle (Count)
system.cpu.numIssuedDist::0                8493163138     78.94%     78.94% # Number of insts issued each cycle (Count)
system.cpu.numIssuedDist::1                 607980946      5.65%     84.59% # Number of insts issued each cycle (Count)
system.cpu.numIssuedDist::2                 456983542      4.25%     88.84% # Number of insts issued each cycle (Count)
system.cpu.numIssuedDist::3                 359423562      3.34%     92.18% # Number of insts issued each cycle (Count)
system.cpu.numIssuedDist::4                 372669870      3.46%     95.64% # Number of insts issued each cycle (Count)
system.cpu.numIssuedDist::5                 238956269      2.22%     97.86% # Number of insts issued each cycle (Count)
system.cpu.numIssuedDist::6                 160713598      1.49%     99.35% # Number of insts issued each cycle (Count)
system.cpu.numIssuedDist::7                  44994160      0.42%     99.77% # Number of insts issued each cycle (Count)
system.cpu.numIssuedDist::8                  24423547      0.23%    100.00% # Number of insts issued each cycle (Count)
system.cpu.numIssuedDist::overflows                 0      0.00%    100.00% # Number of insts issued each cycle (Count)
system.cpu.numIssuedDist::min_value                 0                       # Number of insts issued each cycle (Count)
system.cpu.numIssuedDist::max_value                 8                       # Number of insts issued each cycle (Count)
system.cpu.numIssuedDist::total           10759308632                       # Number of insts issued each cycle (Count)
system.cpu.statFuBusy::No_OpClass                   0      0.00%      0.00% # attempts to use FU when none available (Count)
system.cpu.statFuBusy::IntAlu                 9834268     18.86%     18.86% # attempts to use FU when none available (Count)
system.cpu.statFuBusy::IntMult                      0      0.00%     18.86% # attempts to use FU when none available (Count)
system.cpu.statFuBusy::IntDiv                       0      0.00%     18.86% # attempts to use FU when none available (Count)
system.cpu.statFuBusy::FloatAdd                     0      0.00%     18.86% # attempts to use FU when none available (Count)
system.cpu.statFuBusy::FloatCmp                     0      0.00%     18.86% # attempts to use FU when none available (Count)
system.cpu.statFuBusy::FloatCvt                     0      0.00%     18.86% # attempts to use FU when none available (Count)
system.cpu.statFuBusy::FloatMult                    0      0.00%     18.86% # attempts to use FU when none available (Count)
system.cpu.statFuBusy::FloatMultAcc                 0      0.00%     18.86% # attempts to use FU when none available (Count)
system.cpu.statFuBusy::FloatDiv                     0      0.00%     18.86% # attempts to use FU when none available (Count)
system.cpu.statFuBusy::FloatMisc                    0      0.00%     18.86% # attempts to use FU when none available (Count)
system.cpu.statFuBusy::FloatSqrt                    0      0.00%     18.86% # attempts to use FU when none available (Count)
system.cpu.statFuBusy::SimdAdd                      0      0.00%     18.86% # attempts to use FU when none available (Count)
system.cpu.statFuBusy::SimdAddAcc                   0      0.00%     18.86% # attempts to use FU when none available (Count)
system.cpu.statFuBusy::SimdAlu                   1325      0.00%     18.87% # attempts to use FU when none available (Count)
system.cpu.statFuBusy::SimdCmp                      0      0.00%     18.87% # attempts to use FU when none available (Count)
system.cpu.statFuBusy::SimdCvt                      3      0.00%     18.87% # attempts to use FU when none available (Count)
system.cpu.statFuBusy::SimdMisc                     0      0.00%     18.87% # attempts to use FU when none available (Count)
system.cpu.statFuBusy::SimdMult                     0      0.00%     18.87% # attempts to use FU when none available (Count)
system.cpu.statFuBusy::SimdMultAcc                  0      0.00%     18.87% # attempts to use FU when none available (Count)
system.cpu.statFuBusy::SimdMatMultAcc               0      0.00%     18.87% # attempts to use FU when none available (Count)
system.cpu.statFuBusy::SimdShift                    2      0.00%     18.87% # attempts to use FU when none available (Count)
system.cpu.statFuBusy::SimdShiftAcc                 0      0.00%     18.87% # attempts to use FU when none available (Count)
system.cpu.statFuBusy::SimdDiv                      0      0.00%     18.87% # attempts to use FU when none available (Count)
system.cpu.statFuBusy::SimdSqrt                     0      0.00%     18.87% # attempts to use FU when none available (Count)
system.cpu.statFuBusy::SimdFloatAdd                 0      0.00%     18.87% # attempts to use FU when none available (Count)
system.cpu.statFuBusy::SimdFloatAlu                 0      0.00%     18.87% # attempts to use FU when none available (Count)
system.cpu.statFuBusy::SimdFloatCmp                 0      0.00%     18.87% # attempts to use FU when none available (Count)
system.cpu.statFuBusy::SimdFloatCvt                 0      0.00%     18.87% # attempts to use FU when none available (Count)
system.cpu.statFuBusy::SimdFloatDiv                 0      0.00%     18.87% # attempts to use FU when none available (Count)
system.cpu.statFuBusy::SimdFloatMisc                0      0.00%     18.87% # attempts to use FU when none available (Count)
system.cpu.statFuBusy::SimdFloatMult                0      0.00%     18.87% # attempts to use FU when none available (Count)
system.cpu.statFuBusy::SimdFloatMultAcc             0      0.00%     18.87% # attempts to use FU when none available (Count)
system.cpu.statFuBusy::SimdFloatMatMultAcc            0      0.00%     18.87% # attempts to use FU when none available (Count)
system.cpu.statFuBusy::SimdFloatSqrt                0      0.00%     18.87% # attempts to use FU when none available (Count)
system.cpu.statFuBusy::SimdReduceAdd                0      0.00%     18.87% # attempts to use FU when none available (Count)
system.cpu.statFuBusy::SimdReduceAlu                0      0.00%     18.87% # attempts to use FU when none available (Count)
system.cpu.statFuBusy::SimdReduceCmp                0      0.00%     18.87% # attempts to use FU when none available (Count)
system.cpu.statFuBusy::SimdFloatReduceAdd            0      0.00%     18.87% # attempts to use FU when none available (Count)
system.cpu.statFuBusy::SimdFloatReduceCmp            0      0.00%     18.87% # attempts to use FU when none available (Count)
system.cpu.statFuBusy::SimdAes                      0      0.00%     18.87% # attempts to use FU when none available (Count)
system.cpu.statFuBusy::SimdAesMix                   0      0.00%     18.87% # attempts to use FU when none available (Count)
system.cpu.statFuBusy::SimdSha1Hash                 0      0.00%     18.87% # attempts to use FU when none available (Count)
system.cpu.statFuBusy::SimdSha1Hash2                0      0.00%     18.87% # attempts to use FU when none available (Count)
system.cpu.statFuBusy::SimdSha256Hash               0      0.00%     18.87% # attempts to use FU when none available (Count)
system.cpu.statFuBusy::SimdSha256Hash2              0      0.00%     18.87% # attempts to use FU when none available (Count)
system.cpu.statFuBusy::SimdShaSigma2                0      0.00%     18.87% # attempts to use FU when none available (Count)
system.cpu.statFuBusy::SimdShaSigma3                0      0.00%     18.87% # attempts to use FU when none available (Count)
system.cpu.statFuBusy::SimdPredAlu                  0      0.00%     18.87% # attempts to use FU when none available (Count)
system.cpu.statFuBusy::Matrix                       0      0.00%     18.87% # attempts to use FU when none available (Count)
system.cpu.statFuBusy::MatrixMov                    0      0.00%     18.87% # attempts to use FU when none available (Count)
system.cpu.statFuBusy::MatrixOP                     0      0.00%     18.87% # attempts to use FU when none available (Count)
system.cpu.statFuBusy::MemRead               30275855     58.07%     76.94% # attempts to use FU when none available (Count)
system.cpu.statFuBusy::MemWrite              12014060     23.05%     99.99% # attempts to use FU when none available (Count)
system.cpu.statFuBusy::FloatMemRead              7483      0.01%    100.00% # attempts to use FU when none available (Count)
system.cpu.statFuBusy::FloatMemWrite               23      0.00%    100.00% # attempts to use FU when none available (Count)
system.cpu.statFuBusy::IprAccess                    0      0.00%    100.00% # attempts to use FU when none available (Count)
system.cpu.statFuBusy::InstPrefetch                 0      0.00%    100.00% # attempts to use FU when none available (Count)
system.cpu.statFuBusy::SimdUnitStrideLoad            0      0.00%    100.00% # attempts to use FU when none available (Count)
system.cpu.statFuBusy::SimdUnitStrideStore            0      0.00%    100.00% # attempts to use FU when none available (Count)
system.cpu.statFuBusy::SimdUnitStrideMaskLoad            0      0.00%    100.00% # attempts to use FU when none available (Count)
system.cpu.statFuBusy::SimdUnitStrideMaskStore            0      0.00%    100.00% # attempts to use FU when none available (Count)
system.cpu.statFuBusy::SimdStridedLoad              0      0.00%    100.00% # attempts to use FU when none available (Count)
system.cpu.statFuBusy::SimdStridedStore             0      0.00%    100.00% # attempts to use FU when none available (Count)
system.cpu.statFuBusy::SimdIndexedLoad              0      0.00%    100.00% # attempts to use FU when none available (Count)
system.cpu.statFuBusy::SimdIndexedStore             0      0.00%    100.00% # attempts to use FU when none available (Count)
system.cpu.statFuBusy::SimdWholeRegisterLoad            0      0.00%    100.00% # attempts to use FU when none available (Count)
system.cpu.statFuBusy::SimdWholeRegisterStore            0      0.00%    100.00% # attempts to use FU when none available (Count)
system.cpu.statFuBusy::SimdUnitStrideFaultOnlyFirstLoad            0      0.00%    100.00% # attempts to use FU when none available (Count)
system.cpu.statFuBusy::SimdUnitStrideSegmentedLoad            0      0.00%    100.00% # attempts to use FU when none available (Count)
system.cpu.statFuBusy::SimdUnitStrideSegmentedStore            0      0.00%    100.00% # attempts to use FU when none available (Count)
system.cpu.statFuBusy::SimdExt                      0      0.00%    100.00% # attempts to use FU when none available (Count)
system.cpu.statFuBusy::SimdFloatExt                 0      0.00%    100.00% # attempts to use FU when none available (Count)
system.cpu.statFuBusy::SimdConfig                   0      0.00%    100.00% # attempts to use FU when none available (Count)
system.cpu.statIssuedInstType_0::No_OpClass       129566      0.00%      0.00% # Number of instructions issued per FU type, per thread (Count)
system.cpu.statIssuedInstType_0::IntAlu    4052631205     59.95%     59.95% # Number of instructions issued per FU type, per thread (Count)
system.cpu.statIssuedInstType_0::IntMult     28563576      0.42%     60.37% # Number of instructions issued per FU type, per thread (Count)
system.cpu.statIssuedInstType_0::IntDiv          4351      0.00%     60.37% # Number of instructions issued per FU type, per thread (Count)
system.cpu.statIssuedInstType_0::FloatAdd    127878259      1.89%     62.26% # Number of instructions issued per FU type, per thread (Count)
system.cpu.statIssuedInstType_0::FloatCmp            0      0.00%     62.26% # Number of instructions issued per FU type, per thread (Count)
system.cpu.statIssuedInstType_0::FloatCvt          600      0.00%     62.26% # Number of instructions issued per FU type, per thread (Count)
system.cpu.statIssuedInstType_0::FloatMult            0      0.00%     62.26% # Number of instructions issued per FU type, per thread (Count)
system.cpu.statIssuedInstType_0::FloatMultAcc            0      0.00%     62.26% # Number of instructions issued per FU type, per thread (Count)
system.cpu.statIssuedInstType_0::FloatDiv            0      0.00%     62.26% # Number of instructions issued per FU type, per thread (Count)
system.cpu.statIssuedInstType_0::FloatMisc            0      0.00%     62.26% # Number of instructions issued per FU type, per thread (Count)
system.cpu.statIssuedInstType_0::FloatSqrt            0      0.00%     62.26% # Number of instructions issued per FU type, per thread (Count)
system.cpu.statIssuedInstType_0::SimdAdd           30      0.00%     62.26% # Number of instructions issued per FU type, per thread (Count)
system.cpu.statIssuedInstType_0::SimdAddAcc            0      0.00%     62.26% # Number of instructions issued per FU type, per thread (Count)
system.cpu.statIssuedInstType_0::SimdAlu     47413961      0.70%     62.96% # Number of instructions issued per FU type, per thread (Count)
system.cpu.statIssuedInstType_0::SimdCmp            0      0.00%     62.96% # Number of instructions issued per FU type, per thread (Count)
system.cpu.statIssuedInstType_0::SimdCvt          322      0.00%     62.96% # Number of instructions issued per FU type, per thread (Count)
system.cpu.statIssuedInstType_0::SimdMisc     42645197      0.63%     63.60% # Number of instructions issued per FU type, per thread (Count)
system.cpu.statIssuedInstType_0::SimdMult            0      0.00%     63.60% # Number of instructions issued per FU type, per thread (Count)
system.cpu.statIssuedInstType_0::SimdMultAcc            0      0.00%     63.60% # Number of instructions issued per FU type, per thread (Count)
system.cpu.statIssuedInstType_0::SimdMatMultAcc            0      0.00%     63.60% # Number of instructions issued per FU type, per thread (Count)
system.cpu.statIssuedInstType_0::SimdShift           34      0.00%     63.60% # Number of instructions issued per FU type, per thread (Count)
system.cpu.statIssuedInstType_0::SimdShiftAcc            0      0.00%     63.60% # Number of instructions issued per FU type, per thread (Count)
system.cpu.statIssuedInstType_0::SimdDiv            0      0.00%     63.60% # Number of instructions issued per FU type, per thread (Count)
system.cpu.statIssuedInstType_0::SimdSqrt            0      0.00%     63.60% # Number of instructions issued per FU type, per thread (Count)
system.cpu.statIssuedInstType_0::SimdFloatAdd     23651094      0.35%     63.95% # Number of instructions issued per FU type, per thread (Count)
system.cpu.statIssuedInstType_0::SimdFloatAlu            0      0.00%     63.95% # Number of instructions issued per FU type, per thread (Count)
system.cpu.statIssuedInstType_0::SimdFloatCmp            0      0.00%     63.95% # Number of instructions issued per FU type, per thread (Count)
system.cpu.statIssuedInstType_0::SimdFloatCvt     61574301      0.91%     64.86% # Number of instructions issued per FU type, per thread (Count)
system.cpu.statIssuedInstType_0::SimdFloatDiv      4725316      0.07%     64.93% # Number of instructions issued per FU type, per thread (Count)
system.cpu.statIssuedInstType_0::SimdFloatMisc            0      0.00%     64.93% # Number of instructions issued per FU type, per thread (Count)
system.cpu.statIssuedInstType_0::SimdFloatMult     18926740      0.28%     65.21% # Number of instructions issued per FU type, per thread (Count)
system.cpu.statIssuedInstType_0::SimdFloatMultAcc            0      0.00%     65.21% # Number of instructions issued per FU type, per thread (Count)
system.cpu.statIssuedInstType_0::SimdFloatMatMultAcc            0      0.00%     65.21% # Number of instructions issued per FU type, per thread (Count)
system.cpu.statIssuedInstType_0::SimdFloatSqrt            0      0.00%     65.21% # Number of instructions issued per FU type, per thread (Count)
system.cpu.statIssuedInstType_0::SimdReduceAdd            0      0.00%     65.21% # Number of instructions issued per FU type, per thread (Count)
system.cpu.statIssuedInstType_0::SimdReduceAlu            0      0.00%     65.21% # Number of instructions issued per FU type, per thread (Count)
system.cpu.statIssuedInstType_0::SimdReduceCmp            0      0.00%     65.21% # Number of instructions issued per FU type, per thread (Count)
system.cpu.statIssuedInstType_0::SimdFloatReduceAdd            0      0.00%     65.21% # Number of instructions issued per FU type, per thread (Count)
system.cpu.statIssuedInstType_0::SimdFloatReduceCmp            0      0.00%     65.21% # Number of instructions issued per FU type, per thread (Count)
system.cpu.statIssuedInstType_0::SimdAes            0      0.00%     65.21% # Number of instructions issued per FU type, per thread (Count)
system.cpu.statIssuedInstType_0::SimdAesMix            0      0.00%     65.21% # Number of instructions issued per FU type, per thread (Count)
system.cpu.statIssuedInstType_0::SimdSha1Hash            0      0.00%     65.21% # Number of instructions issued per FU type, per thread (Count)
system.cpu.statIssuedInstType_0::SimdSha1Hash2            0      0.00%     65.21% # Number of instructions issued per FU type, per thread (Count)
system.cpu.statIssuedInstType_0::SimdSha256Hash            0      0.00%     65.21% # Number of instructions issued per FU type, per thread (Count)
system.cpu.statIssuedInstType_0::SimdSha256Hash2            0      0.00%     65.21% # Number of instructions issued per FU type, per thread (Count)
system.cpu.statIssuedInstType_0::SimdShaSigma2            0      0.00%     65.21% # Number of instructions issued per FU type, per thread (Count)
system.cpu.statIssuedInstType_0::SimdShaSigma3            0      0.00%     65.21% # Number of instructions issued per FU type, per thread (Count)
system.cpu.statIssuedInstType_0::SimdPredAlu            0      0.00%     65.21% # Number of instructions issued per FU type, per thread (Count)
system.cpu.statIssuedInstType_0::Matrix             0      0.00%     65.21% # Number of instructions issued per FU type, per thread (Count)
system.cpu.statIssuedInstType_0::MatrixMov            0      0.00%     65.21% # Number of instructions issued per FU type, per thread (Count)
system.cpu.statIssuedInstType_0::MatrixOP            0      0.00%     65.21% # Number of instructions issued per FU type, per thread (Count)
system.cpu.statIssuedInstType_0::MemRead   1327162842     19.63%     84.84% # Number of instructions issued per FU type, per thread (Count)
system.cpu.statIssuedInstType_0::MemWrite    830705249     12.29%     97.13% # Number of instructions issued per FU type, per thread (Count)
system.cpu.statIssuedInstType_0::FloatMemRead    146829200      2.17%     99.30% # Number of instructions issued per FU type, per thread (Count)
system.cpu.statIssuedInstType_0::FloatMemWrite     47466782      0.70%    100.00% # Number of instructions issued per FU type, per thread (Count)
system.cpu.statIssuedInstType_0::IprAccess            0      0.00%    100.00% # Number of instructions issued per FU type, per thread (Count)
system.cpu.statIssuedInstType_0::InstPrefetch            0      0.00%    100.00% # Number of instructions issued per FU type, per thread (Count)
system.cpu.statIssuedInstType_0::SimdUnitStrideLoad            0      0.00%    100.00% # Number of instructions issued per FU type, per thread (Count)
system.cpu.statIssuedInstType_0::SimdUnitStrideStore            0      0.00%    100.00% # Number of instructions issued per FU type, per thread (Count)
system.cpu.statIssuedInstType_0::SimdUnitStrideMaskLoad            0      0.00%    100.00% # Number of instructions issued per FU type, per thread (Count)
system.cpu.statIssuedInstType_0::SimdUnitStrideMaskStore            0      0.00%    100.00% # Number of instructions issued per FU type, per thread (Count)
system.cpu.statIssuedInstType_0::SimdStridedLoad            0      0.00%    100.00% # Number of instructions issued per FU type, per thread (Count)
system.cpu.statIssuedInstType_0::SimdStridedStore            0      0.00%    100.00% # Number of instructions issued per FU type, per thread (Count)
system.cpu.statIssuedInstType_0::SimdIndexedLoad            0      0.00%    100.00% # Number of instructions issued per FU type, per thread (Count)
system.cpu.statIssuedInstType_0::SimdIndexedStore            0      0.00%    100.00% # Number of instructions issued per FU type, per thread (Count)
system.cpu.statIssuedInstType_0::SimdWholeRegisterLoad            0      0.00%    100.00% # Number of instructions issued per FU type, per thread (Count)
system.cpu.statIssuedInstType_0::SimdWholeRegisterStore            0      0.00%    100.00% # Number of instructions issued per FU type, per thread (Count)
system.cpu.statIssuedInstType_0::SimdUnitStrideFaultOnlyFirstLoad            0      0.00%    100.00% # Number of instructions issued per FU type, per thread (Count)
system.cpu.statIssuedInstType_0::SimdUnitStrideSegmentedLoad            0      0.00%    100.00% # Number of instructions issued per FU type, per thread (Count)
system.cpu.statIssuedInstType_0::SimdUnitStrideSegmentedStore            0      0.00%    100.00% # Number of instructions issued per FU type, per thread (Count)
system.cpu.statIssuedInstType_0::SimdExt            0      0.00%    100.00% # Number of instructions issued per FU type, per thread (Count)
system.cpu.statIssuedInstType_0::SimdFloatExt            0      0.00%    100.00% # Number of instructions issued per FU type, per thread (Count)
system.cpu.statIssuedInstType_0::SimdConfig            0      0.00%    100.00% # Number of instructions issued per FU type, per thread (Count)
system.cpu.statIssuedInstType_0::total     6760308625                       # Number of instructions issued per FU type, per thread (Count)
system.cpu.issueRate                         0.628053                       # Inst issue rate ((Count/Cycle))
system.cpu.fuBusy                            52133019                       # FU busy when requested (Count)
system.cpu.fuBusyRate                        0.007712                       # FU busy rate (busy events/executed inst) ((Count/Count))
system.cpu.intInstQueueReads              23289832168                       # Number of integer instruction queue reads (Count)
system.cpu.intInstQueueWrites              6250803196                       # Number of integer instruction queue writes (Count)
system.cpu.intInstQueueWakeupAccesses      6238196967                       # Number of integer instruction queue wakeup accesses (Count)
system.cpu.fpInstQueueReads                1042232545                       # Number of floating instruction queue reads (Count)
system.cpu.fpInstQueueWrites                521398116                       # Number of floating instruction queue writes (Count)
system.cpu.fpInstQueueWakeupAccesses        521094579                       # Number of floating instruction queue wakeup accesses (Count)
system.cpu.vecInstQueueReads                        0                       # Number of vector instruction queue reads (Count)
system.cpu.vecInstQueueWrites                       0                       # Number of vector instruction queue writes (Count)
system.cpu.vecInstQueueWakeupAccesses               0                       # Number of vector instruction queue wakeup accesses (Count)
system.cpu.intAluAccesses                  6291191389                       # Number of integer alu accesses (Count)
system.cpu.fpAluAccesses                    521120689                       # Number of floating point alu accesses (Count)
system.cpu.vecAluAccesses                           0                       # Number of vector alu accesses (Count)
system.cpu.numSquashedInsts                    800139                       # Number of squashed instructions skipped in execute (Count)
system.cpu.numSwp                                   0                       # Number of swp insts executed (Count)
system.cpu.timesIdled                            2072                       # Number of times that the entire CPU went into an idle state and unscheduled itself (Count)
system.cpu.idleCycles                         4603785                       # Total number of cycles that the CPU has spent unscheduled due to idling (Cycle)
system.cpu.MemDepUnit__0.insertedLoads     1474426787                       # Number of loads inserted to the mem dependence unit. (Count)
system.cpu.MemDepUnit__0.insertedStores     878425864                       # Number of stores inserted to the mem dependence unit. (Count)
system.cpu.MemDepUnit__0.conflictingLoads    669433643                       # Number of conflicting loads. (Count)
system.cpu.MemDepUnit__0.conflictingStores    194621996                       # Number of conflicting stores. (Count)
system.cpu.MemDepUnit__1.insertedLoads              0                       # Number of loads inserted to the mem dependence unit. (Count)
system.cpu.MemDepUnit__1.insertedStores             0                       # Number of stores inserted to the mem dependence unit. (Count)
system.cpu.MemDepUnit__1.conflictingLoads            0                       # Number of conflicting loads. (Count)
system.cpu.MemDepUnit__1.conflictingStores            0                       # Number of conflicting stores. (Count)
system.cpu.MemDepUnit__2.insertedLoads              0                       # Number of loads inserted to the mem dependence unit. (Count)
system.cpu.MemDepUnit__2.insertedStores             0                       # Number of stores inserted to the mem dependence unit. (Count)
system.cpu.MemDepUnit__2.conflictingLoads            0                       # Number of conflicting loads. (Count)
system.cpu.MemDepUnit__2.conflictingStores            0                       # Number of conflicting stores. (Count)
system.cpu.MemDepUnit__3.insertedLoads              0                       # Number of loads inserted to the mem dependence unit. (Count)
system.cpu.MemDepUnit__3.insertedStores             0                       # Number of stores inserted to the mem dependence unit. (Count)
system.cpu.MemDepUnit__3.conflictingLoads            0                       # Number of conflicting loads. (Count)
system.cpu.MemDepUnit__3.conflictingStores            0                       # Number of conflicting stores. (Count)
system.cpu.branchPred.lookups_0::NoBranch            2      0.00%      0.00% # Number of BP lookups (Count)
system.cpu.branchPred.lookups_0::Return     198493646     37.58%     37.58% # Number of BP lookups (Count)
system.cpu.branchPred.lookups_0::CallDirect    198078246     37.50%     75.08% # Number of BP lookups (Count)
system.cpu.branchPred.lookups_0::CallIndirect         1091      0.00%     75.08% # Number of BP lookups (Count)
system.cpu.branchPred.lookups_0::DirectCond    124826581     23.63%     98.72% # Number of BP lookups (Count)
system.cpu.branchPred.lookups_0::DirectUncond      1800893      0.34%     99.06% # Number of BP lookups (Count)
system.cpu.branchPred.lookups_0::IndirectCond            0      0.00%     99.06% # Number of BP lookups (Count)
system.cpu.branchPred.lookups_0::IndirectUncond      4983683      0.94%    100.00% # Number of BP lookups (Count)
system.cpu.branchPred.lookups_0::total      528184142                       # Number of BP lookups (Count)
system.cpu.branchPred.squashes_0::NoBranch            2      0.00%      0.00% # Number of branches that got squashed (completely removed) as an earlier branch was mispredicted. (Count)
system.cpu.branchPred.squashes_0::Return       700742     41.42%     41.42% # Number of branches that got squashed (completely removed) as an earlier branch was mispredicted. (Count)
system.cpu.branchPred.squashes_0::CallDirect       286157     16.91%     58.33% # Number of branches that got squashed (completely removed) as an earlier branch was mispredicted. (Count)
system.cpu.branchPred.squashes_0::CallIndirect          272      0.02%     58.35% # Number of branches that got squashed (completely removed) as an earlier branch was mispredicted. (Count)
system.cpu.branchPred.squashes_0::DirectCond       616138     36.42%     94.76% # Number of branches that got squashed (completely removed) as an earlier branch was mispredicted. (Count)
system.cpu.branchPred.squashes_0::DirectUncond        72701      4.30%     99.06% # Number of branches that got squashed (completely removed) as an earlier branch was mispredicted. (Count)
system.cpu.branchPred.squashes_0::IndirectCond            0      0.00%     99.06% # Number of branches that got squashed (completely removed) as an earlier branch was mispredicted. (Count)
system.cpu.branchPred.squashes_0::IndirectUncond        15914      0.94%    100.00% # Number of branches that got squashed (completely removed) as an earlier branch was mispredicted. (Count)
system.cpu.branchPred.squashes_0::total       1691926                       # Number of branches that got squashed (completely removed) as an earlier branch was mispredicted. (Count)
system.cpu.branchPred.corrected_0::NoBranch            1      0.00%      0.00% # Number of branches that got corrected but not yet commited. Branches get corrected by decode or after execute. Also a branch misprediction can be detected out-of-order. Therefore, a corrected branch might not end up beeing committed in case an even earlier branch was mispredicted (Count)
system.cpu.branchPred.corrected_0::Return           80      0.03%      0.03% # Number of branches that got corrected but not yet commited. Branches get corrected by decode or after execute. Also a branch misprediction can be detected out-of-order. Therefore, a corrected branch might not end up beeing committed in case an even earlier branch was mispredicted (Count)
system.cpu.branchPred.corrected_0::CallDirect         2000      0.82%      0.85% # Number of branches that got corrected but not yet commited. Branches get corrected by decode or after execute. Also a branch misprediction can be detected out-of-order. Therefore, a corrected branch might not end up beeing committed in case an even earlier branch was mispredicted (Count)
system.cpu.branchPred.corrected_0::CallIndirect          176      0.07%      0.93% # Number of branches that got corrected but not yet commited. Branches get corrected by decode or after execute. Also a branch misprediction can be detected out-of-order. Therefore, a corrected branch might not end up beeing committed in case an even earlier branch was mispredicted (Count)
system.cpu.branchPred.corrected_0::DirectCond       240488     98.64%     99.57% # Number of branches that got corrected but not yet commited. Branches get corrected by decode or after execute. Also a branch misprediction can be detected out-of-order. Therefore, a corrected branch might not end up beeing committed in case an even earlier branch was mispredicted (Count)
system.cpu.branchPred.corrected_0::DirectUncond          707      0.29%     99.86% # Number of branches that got corrected but not yet commited. Branches get corrected by decode or after execute. Also a branch misprediction can be detected out-of-order. Therefore, a corrected branch might not end up beeing committed in case an even earlier branch was mispredicted (Count)
system.cpu.branchPred.corrected_0::IndirectCond            0      0.00%     99.86% # Number of branches that got corrected but not yet commited. Branches get corrected by decode or after execute. Also a branch misprediction can be detected out-of-order. Therefore, a corrected branch might not end up beeing committed in case an even earlier branch was mispredicted (Count)
system.cpu.branchPred.corrected_0::IndirectUncond          353      0.14%    100.00% # Number of branches that got corrected but not yet commited. Branches get corrected by decode or after execute. Also a branch misprediction can be detected out-of-order. Therefore, a corrected branch might not end up beeing committed in case an even earlier branch was mispredicted (Count)
system.cpu.branchPred.corrected_0::total       243805                       # Number of branches that got corrected but not yet commited. Branches get corrected by decode or after execute. Also a branch misprediction can be detected out-of-order. Therefore, a corrected branch might not end up beeing committed in case an even earlier branch was mispredicted (Count)
system.cpu.branchPred.earlyResteers_0::NoBranch            0                       # Number of branches that got redirected after decode. (Count)
system.cpu.branchPred.earlyResteers_0::Return            0                       # Number of branches that got redirected after decode. (Count)
system.cpu.branchPred.earlyResteers_0::CallDirect            0                       # Number of branches that got redirected after decode. (Count)
system.cpu.branchPred.earlyResteers_0::CallIndirect            0                       # Number of branches that got redirected after decode. (Count)
system.cpu.branchPred.earlyResteers_0::DirectCond            0                       # Number of branches that got redirected after decode. (Count)
system.cpu.branchPred.earlyResteers_0::DirectUncond            0                       # Number of branches that got redirected after decode. (Count)
system.cpu.branchPred.earlyResteers_0::IndirectCond            0                       # Number of branches that got redirected after decode. (Count)
system.cpu.branchPred.earlyResteers_0::IndirectUncond            0                       # Number of branches that got redirected after decode. (Count)
system.cpu.branchPred.earlyResteers_0::total            0                       # Number of branches that got redirected after decode. (Count)
system.cpu.branchPred.committed_0::NoBranch            0      0.00%      0.00% # Number of branches finally committed  (Count)
system.cpu.branchPred.committed_0::Return    197792904     37.57%     37.57% # Number of branches finally committed  (Count)
system.cpu.branchPred.committed_0::CallDirect    197792089     37.57%     75.14% # Number of branches finally committed  (Count)
system.cpu.branchPred.committed_0::CallIndirect          819      0.00%     75.14% # Number of branches finally committed  (Count)
system.cpu.branchPred.committed_0::DirectCond    124210442     23.59%     98.73% # Number of branches finally committed  (Count)
system.cpu.branchPred.committed_0::DirectUncond      1728192      0.33%     99.06% # Number of branches finally committed  (Count)
system.cpu.branchPred.committed_0::IndirectCond            0      0.00%     99.06% # Number of branches finally committed  (Count)
system.cpu.branchPred.committed_0::IndirectUncond      4967769      0.94%    100.00% # Number of branches finally committed  (Count)
system.cpu.branchPred.committed_0::total    526492215                       # Number of branches finally committed  (Count)
system.cpu.branchPred.mispredicted_0::NoBranch            0      0.00%      0.00% # Number of committed branches that were mispredicted. (Count)
system.cpu.branchPred.mispredicted_0::Return           60      0.03%      0.03% # Number of committed branches that were mispredicted. (Count)
system.cpu.branchPred.mispredicted_0::CallDirect         1666      0.70%      0.72% # Number of committed branches that were mispredicted. (Count)
system.cpu.branchPred.mispredicted_0::CallIndirect          159      0.07%      0.79% # Number of committed branches that were mispredicted. (Count)
system.cpu.branchPred.mispredicted_0::DirectCond       237157     98.94%     99.73% # Number of committed branches that were mispredicted. (Count)
system.cpu.branchPred.mispredicted_0::DirectUncond          342      0.14%     99.87% # Number of committed branches that were mispredicted. (Count)
system.cpu.branchPred.mispredicted_0::IndirectCond            0      0.00%     99.87% # Number of committed branches that were mispredicted. (Count)
system.cpu.branchPred.mispredicted_0::IndirectUncond          316      0.13%    100.00% # Number of committed branches that were mispredicted. (Count)
system.cpu.branchPred.mispredicted_0::total       239700                       # Number of committed branches that were mispredicted. (Count)
system.cpu.branchPred.targetProvider_0::NoTarget     32727803      6.20%      6.20% # The component providing the target for taken branches (Count)
system.cpu.branchPred.targetProvider_0::BTB    291979945     55.28%     61.48% # The component providing the target for taken branches (Count)
system.cpu.branchPred.targetProvider_0::RAS    198493641     37.58%     99.06% # The component providing the target for taken branches (Count)
system.cpu.branchPred.targetProvider_0::Indirect      4982753      0.94%    100.00% # The component providing the target for taken branches (Count)
system.cpu.branchPred.targetProvider_0::total    528184142                       # The component providing the target for taken branches (Count)
system.cpu.branchPred.targetWrong_0::NoBranch       176054     72.30%     72.30% # Number of branches where the target was incorrect or not available at prediction time. (Count)
system.cpu.branchPred.targetWrong_0::Return        67334     27.65%     99.96% # Number of branches where the target was incorrect or not available at prediction time. (Count)
system.cpu.branchPred.targetWrong_0::CallDirect           80      0.03%     99.99% # Number of branches where the target was incorrect or not available at prediction time. (Count)
system.cpu.branchPred.targetWrong_0::CallIndirect           23      0.01%    100.00% # Number of branches where the target was incorrect or not available at prediction time. (Count)
system.cpu.branchPred.targetWrong_0::DirectCond            0      0.00%    100.00% # Number of branches where the target was incorrect or not available at prediction time. (Count)
system.cpu.branchPred.targetWrong_0::DirectUncond            0      0.00%    100.00% # Number of branches where the target was incorrect or not available at prediction time. (Count)
system.cpu.branchPred.targetWrong_0::IndirectCond            0      0.00%    100.00% # Number of branches where the target was incorrect or not available at prediction time. (Count)
system.cpu.branchPred.targetWrong_0::IndirectUncond            0      0.00%    100.00% # Number of branches where the target was incorrect or not available at prediction time. (Count)
system.cpu.branchPred.targetWrong_0::total       243491                       # Number of branches where the target was incorrect or not available at prediction time. (Count)
system.cpu.branchPred.condPredicted         124826583                       # Number of conditional branches predicted (Count)
system.cpu.branchPred.condPredictedTaken     92108745                       # Number of conditional branches predicted as taken (Count)
system.cpu.branchPred.condIncorrect            243805                       # Number of conditional branches incorrect (Count)
system.cpu.branchPred.predTakenBTBMiss           4374                       # Number of branches predicted taken but missed in BTB (Count)
system.cpu.branchPred.NotTakenMispredicted       176437                       # Number branches predicted 'not taken' but turned out to be taken (Count)
system.cpu.branchPred.TakenMispredicted         67368                       # Number branches predicted taken but are actually not taken (Count)
system.cpu.branchPred.BTBLookups            528184142                       # Number of BTB lookups (Count)
system.cpu.branchPred.BTBUpdates               175827                       # Number of BTB updates (Count)
system.cpu.branchPred.BTBHits               303582445                       # Number of BTB hits (Count)
system.cpu.branchPred.BTBHitRatio            0.574766                       # BTB Hit Ratio (Ratio)
system.cpu.branchPred.BTBMispredicted            5157                       # Number BTB mispredictions. No target found or target wrong (Count)
system.cpu.branchPred.indirectLookups         4984774                       # Number of indirect predictor lookups. (Count)
system.cpu.branchPred.indirectHits            4982753                       # Number of indirect target hits. (Count)
system.cpu.branchPred.indirectMisses             2021                       # Number of indirect misses. (Count)
system.cpu.branchPred.indirectMispredicted            0                       # Number of mispredicted indirect branches. (Count)
system.cpu.branchPred.btb.lookups::NoBranch            2      0.00%      0.00% # Number of BTB lookups (Count)
system.cpu.branchPred.btb.lookups::Return    198493646     37.58%     37.58% # Number of BTB lookups (Count)
system.cpu.branchPred.btb.lookups::CallDirect    198078246     37.50%     75.08% # Number of BTB lookups (Count)
system.cpu.branchPred.btb.lookups::CallIndirect         1091      0.00%     75.08% # Number of BTB lookups (Count)
system.cpu.branchPred.btb.lookups::DirectCond    124826581     23.63%     98.72% # Number of BTB lookups (Count)
system.cpu.branchPred.btb.lookups::DirectUncond      1800893      0.34%     99.06% # Number of BTB lookups (Count)
system.cpu.branchPred.btb.lookups::IndirectCond            0      0.00%     99.06% # Number of BTB lookups (Count)
system.cpu.branchPred.btb.lookups::IndirectUncond      4983683      0.94%    100.00% # Number of BTB lookups (Count)
system.cpu.branchPred.btb.lookups::total    528184142                       # Number of BTB lookups (Count)
system.cpu.branchPred.btb.misses::NoBranch            2      0.00%      0.00% # Number of BTB misses (Count)
system.cpu.branchPred.btb.misses::Return    198493592     88.38%     88.38% # Number of BTB misses (Count)
system.cpu.branchPred.btb.misses::CallDirect         2448      0.00%     88.38% # Number of BTB misses (Count)
system.cpu.branchPred.btb.misses::CallIndirect          956      0.00%     88.38% # Number of BTB misses (Count)
system.cpu.branchPred.btb.misses::DirectCond     21120050      9.40%     97.78% # Number of BTB misses (Count)
system.cpu.branchPred.btb.misses::DirectUncond          966      0.00%     97.78% # Number of BTB misses (Count)
system.cpu.branchPred.btb.misses::IndirectCond            0      0.00%     97.78% # Number of BTB misses (Count)
system.cpu.branchPred.btb.misses::IndirectUncond      4983683      2.22%    100.00% # Number of BTB misses (Count)
system.cpu.branchPred.btb.misses::total     224601697                       # Number of BTB misses (Count)
system.cpu.branchPred.btb.updates::NoBranch            0      0.00%      0.00% # Number of BTB updates (Count)
system.cpu.branchPred.btb.updates::Return            0      0.00%      0.00% # Number of BTB updates (Count)
system.cpu.branchPred.btb.updates::CallDirect         2000      1.14%      1.14% # Number of BTB updates (Count)
system.cpu.branchPred.btb.updates::CallIndirect            0      0.00%      1.14% # Number of BTB updates (Count)
system.cpu.branchPred.btb.updates::DirectCond       173120     98.46%     99.60% # Number of BTB updates (Count)
system.cpu.branchPred.btb.updates::DirectUncond          707      0.40%    100.00% # Number of BTB updates (Count)
system.cpu.branchPred.btb.updates::IndirectCond            0      0.00%    100.00% # Number of BTB updates (Count)
system.cpu.branchPred.btb.updates::IndirectUncond            0      0.00%    100.00% # Number of BTB updates (Count)
system.cpu.branchPred.btb.updates::total       175827                       # Number of BTB updates (Count)
system.cpu.branchPred.btb.mispredict::NoBranch            0      0.00%      0.00% # Number of BTB mispredictions. No target found or target wrong. (Count)
system.cpu.branchPred.btb.mispredict::Return            0      0.00%      0.00% # Number of BTB mispredictions. No target found or target wrong. (Count)
system.cpu.branchPred.btb.mispredict::CallDirect         2000      1.14%      1.14% # Number of BTB mispredictions. No target found or target wrong. (Count)
system.cpu.branchPred.btb.mispredict::CallIndirect            0      0.00%      1.14% # Number of BTB mispredictions. No target found or target wrong. (Count)
system.cpu.branchPred.btb.mispredict::DirectCond       173120     98.46%     99.60% # Number of BTB mispredictions. No target found or target wrong. (Count)
system.cpu.branchPred.btb.mispredict::DirectUncond          707      0.40%    100.00% # Number of BTB mispredictions. No target found or target wrong. (Count)
system.cpu.branchPred.btb.mispredict::IndirectCond            0      0.00%    100.00% # Number of BTB mispredictions. No target found or target wrong. (Count)
system.cpu.branchPred.btb.mispredict::IndirectUncond            0      0.00%    100.00% # Number of BTB mispredictions. No target found or target wrong. (Count)
system.cpu.branchPred.btb.mispredict::total       175827                       # Number of BTB mispredictions. No target found or target wrong. (Count)
system.cpu.branchPred.btb.power_state.pwrStateResidencyTicks::UNDEFINED 3369104586208                       # Cumulative time (in ticks) in various power states (Tick)
system.cpu.branchPred.indirectBranchPred.lookups      4984774                       # Number of lookups (Count)
system.cpu.branchPred.indirectBranchPred.hits      4982753                       # Number of hits of a tag (Count)
system.cpu.branchPred.indirectBranchPred.misses         2021                       # Number of misses (Count)
system.cpu.branchPred.indirectBranchPred.targetRecords          529                       # Number of targets that where recorded/installed in the cache (Count)
system.cpu.branchPred.indirectBranchPred.indirectRecords      4985303                       # Number of indirect branches/calls recorded in the indirect hist (Count)
system.cpu.branchPred.indirectBranchPred.speculativeOverflows            0                       # Number of times more than the allowed capacity for speculative branches/calls where in flight and destroy the path history (Count)
system.cpu.branchPred.ras.pushes            198780079                       # Number of times a PC was pushed onto the RAS (Count)
system.cpu.branchPred.ras.pops              198780075                       # Number of times a PC was poped from the RAS (Count)
system.cpu.branchPred.ras.squashes             987171                       # Number of times the stack operation was squashed due to wrong speculation. (Count)
system.cpu.branchPred.ras.used              197792904                       # Number of times the RAS is the provider (Count)
system.cpu.branchPred.ras.correct           197792844                       # Number of times the RAS is the provider and the prediction is correct (Count)
system.cpu.branchPred.ras.incorrect                60                       # Number of times the RAS is the provider and the prediction is wrong (Count)
system.cpu.commit.commitSquashedInsts         9281390                       # The number of squashed insts skipped by commit (Count)
system.cpu.commit.commitNonSpecStalls            1071                       # The number of times commit has been forced to stall to communicate backwards (Count)
system.cpu.commit.branchMispredicts            242695                       # The number of times a branch was mispredicted (Count)
system.cpu.commit.numCommittedDist::samples  10757944091                       # Number of insts commited each cycle (Count)
system.cpu.commit.numCommittedDist::mean     0.627707                       # Number of insts commited each cycle (Count)
system.cpu.commit.numCommittedDist::stdev     1.891223                       # Number of insts commited each cycle (Count)
system.cpu.commit.numCommittedDist::underflows            0      0.00%      0.00% # Number of insts commited each cycle (Count)
system.cpu.commit.numCommittedDist::0      9172054463     85.26%     85.26% # Number of insts commited each cycle (Count)
system.cpu.commit.numCommittedDist::1       491540859      4.57%     89.83% # Number of insts commited each cycle (Count)
system.cpu.commit.numCommittedDist::2       149285072      1.39%     91.22% # Number of insts commited each cycle (Count)
system.cpu.commit.numCommittedDist::3       202056124      1.88%     93.09% # Number of insts commited each cycle (Count)
system.cpu.commit.numCommittedDist::4        45980363      0.43%     93.52% # Number of insts commited each cycle (Count)
system.cpu.commit.numCommittedDist::5        70305111      0.65%     94.17% # Number of insts commited each cycle (Count)
system.cpu.commit.numCommittedDist::6        48161207      0.45%     94.62% # Number of insts commited each cycle (Count)
system.cpu.commit.numCommittedDist::7        96347971      0.90%     95.52% # Number of insts commited each cycle (Count)
system.cpu.commit.numCommittedDist::8       482212921      4.48%    100.00% # Number of insts commited each cycle (Count)
system.cpu.commit.numCommittedDist::overflows            0      0.00%    100.00% # Number of insts commited each cycle (Count)
system.cpu.commit.numCommittedDist::min_value            0                       # Number of insts commited each cycle (Count)
system.cpu.commit.numCommittedDist::max_value            8                       # Number of insts commited each cycle (Count)
system.cpu.commit.numCommittedDist::total  10757944091                       # Number of insts commited each cycle (Count)
system.cpu.commit.amos                              0                       # Number of atomic instructions committed (Count)
system.cpu.commit.membars                         570                       # Number of memory barriers committed (Count)
system.cpu.commit.functionCalls             197792908                       # Number of function calls committed. (Count)
system.cpu.commit.committedInstType_0::No_OpClass       125633      0.00%      0.00% # Class of committed instruction (Count)
system.cpu.commit.committedInstType_0::IntAlu   4047417051     59.94%     59.94% # Class of committed instruction (Count)
system.cpu.commit.committedInstType_0::IntMult     28562131      0.42%     60.36% # Class of committed instruction (Count)
system.cpu.commit.committedInstType_0::IntDiv         3677      0.00%     60.36% # Class of committed instruction (Count)
system.cpu.commit.committedInstType_0::FloatAdd    127830639      1.89%     62.25% # Class of committed instruction (Count)
system.cpu.commit.committedInstType_0::FloatCmp            0      0.00%     62.25% # Class of committed instruction (Count)
system.cpu.commit.committedInstType_0::FloatCvt          384      0.00%     62.25% # Class of committed instruction (Count)
system.cpu.commit.committedInstType_0::FloatMult            0      0.00%     62.25% # Class of committed instruction (Count)
system.cpu.commit.committedInstType_0::FloatMultAcc            0      0.00%     62.25% # Class of committed instruction (Count)
system.cpu.commit.committedInstType_0::FloatDiv            0      0.00%     62.25% # Class of committed instruction (Count)
system.cpu.commit.committedInstType_0::FloatMisc            0      0.00%     62.25% # Class of committed instruction (Count)
system.cpu.commit.committedInstType_0::FloatSqrt            0      0.00%     62.25% # Class of committed instruction (Count)
system.cpu.commit.committedInstType_0::SimdAdd           20      0.00%     62.25% # Class of committed instruction (Count)
system.cpu.commit.committedInstType_0::SimdAddAcc            0      0.00%     62.25% # Class of committed instruction (Count)
system.cpu.commit.committedInstType_0::SimdAlu     47399676      0.70%     62.96% # Class of committed instruction (Count)
system.cpu.commit.committedInstType_0::SimdCmp            0      0.00%     62.96% # Class of committed instruction (Count)
system.cpu.commit.committedInstType_0::SimdCvt          256      0.00%     62.96% # Class of committed instruction (Count)
system.cpu.commit.committedInstType_0::SimdMisc     42628151      0.63%     63.59% # Class of committed instruction (Count)
system.cpu.commit.committedInstType_0::SimdMult            0      0.00%     63.59% # Class of committed instruction (Count)
system.cpu.commit.committedInstType_0::SimdMultAcc            0      0.00%     63.59% # Class of committed instruction (Count)
system.cpu.commit.committedInstType_0::SimdMatMultAcc            0      0.00%     63.59% # Class of committed instruction (Count)
system.cpu.commit.committedInstType_0::SimdShift           30      0.00%     63.59% # Class of committed instruction (Count)
system.cpu.commit.committedInstType_0::SimdShiftAcc            0      0.00%     63.59% # Class of committed instruction (Count)
system.cpu.commit.committedInstType_0::SimdDiv            0      0.00%     63.59% # Class of committed instruction (Count)
system.cpu.commit.committedInstType_0::SimdSqrt            0      0.00%     63.59% # Class of committed instruction (Count)
system.cpu.commit.committedInstType_0::SimdFloatAdd     23649024      0.35%     63.94% # Class of committed instruction (Count)
system.cpu.commit.committedInstType_0::SimdFloatAlu            0      0.00%     63.94% # Class of committed instruction (Count)
system.cpu.commit.committedInstType_0::SimdFloatCmp            0      0.00%     63.94% # Class of committed instruction (Count)
system.cpu.commit.committedInstType_0::SimdFloatCvt     61549824      0.91%     64.85% # Class of committed instruction (Count)
system.cpu.commit.committedInstType_0::SimdFloatDiv      4723968      0.07%     64.92% # Class of committed instruction (Count)
system.cpu.commit.committedInstType_0::SimdFloatMisc            0      0.00%     64.92% # Class of committed instruction (Count)
system.cpu.commit.committedInstType_0::SimdFloatMult     18925056      0.28%     65.20% # Class of committed instruction (Count)
system.cpu.commit.committedInstType_0::SimdFloatMultAcc            0      0.00%     65.20% # Class of committed instruction (Count)
system.cpu.commit.committedInstType_0::SimdFloatMatMultAcc            0      0.00%     65.20% # Class of committed instruction (Count)
system.cpu.commit.committedInstType_0::SimdFloatSqrt            0      0.00%     65.20% # Class of committed instruction (Count)
system.cpu.commit.committedInstType_0::SimdReduceAdd            0      0.00%     65.20% # Class of committed instruction (Count)
system.cpu.commit.committedInstType_0::SimdReduceAlu            0      0.00%     65.20% # Class of committed instruction (Count)
system.cpu.commit.committedInstType_0::SimdReduceCmp            0      0.00%     65.20% # Class of committed instruction (Count)
system.cpu.commit.committedInstType_0::SimdFloatReduceAdd            0      0.00%     65.20% # Class of committed instruction (Count)
system.cpu.commit.committedInstType_0::SimdFloatReduceCmp            0      0.00%     65.20% # Class of committed instruction (Count)
system.cpu.commit.committedInstType_0::SimdAes            0      0.00%     65.20% # Class of committed instruction (Count)
system.cpu.commit.committedInstType_0::SimdAesMix            0      0.00%     65.20% # Class of committed instruction (Count)
system.cpu.commit.committedInstType_0::SimdSha1Hash            0      0.00%     65.20% # Class of committed instruction (Count)
system.cpu.commit.committedInstType_0::SimdSha1Hash2            0      0.00%     65.20% # Class of committed instruction (Count)
system.cpu.commit.committedInstType_0::SimdSha256Hash            0      0.00%     65.20% # Class of committed instruction (Count)
system.cpu.commit.committedInstType_0::SimdSha256Hash2            0      0.00%     65.20% # Class of committed instruction (Count)
system.cpu.commit.committedInstType_0::SimdShaSigma2            0      0.00%     65.20% # Class of committed instruction (Count)
system.cpu.commit.committedInstType_0::SimdShaSigma3            0      0.00%     65.20% # Class of committed instruction (Count)
system.cpu.commit.committedInstType_0::SimdPredAlu            0      0.00%     65.20% # Class of committed instruction (Count)
system.cpu.commit.committedInstType_0::Matrix            0      0.00%     65.20% # Class of committed instruction (Count)
system.cpu.commit.committedInstType_0::MatrixMov            0      0.00%     65.20% # Class of committed instruction (Count)
system.cpu.commit.committedInstType_0::MatrixOP            0      0.00%     65.20% # Class of committed instruction (Count)
system.cpu.commit.committedInstType_0::MemRead   1325782500     19.63%     84.83% # Class of committed instruction (Count)
system.cpu.commit.committedInstType_0::MemWrite    830010296     12.29%     97.12% # Class of committed instruction (Count)
system.cpu.commit.committedInstType_0::FloatMemRead    146761522      2.17%     99.30% # Class of committed instruction (Count)
system.cpu.commit.committedInstType_0::FloatMemWrite     47462951      0.70%    100.00% # Class of committed instruction (Count)
system.cpu.commit.committedInstType_0::IprAccess            0      0.00%    100.00% # Class of committed instruction (Count)
system.cpu.commit.committedInstType_0::InstPrefetch            0      0.00%    100.00% # Class of committed instruction (Count)
system.cpu.commit.committedInstType_0::SimdUnitStrideLoad            0      0.00%    100.00% # Class of committed instruction (Count)
system.cpu.commit.committedInstType_0::SimdUnitStrideStore            0      0.00%    100.00% # Class of committed instruction (Count)
system.cpu.commit.committedInstType_0::SimdUnitStrideMaskLoad            0      0.00%    100.00% # Class of committed instruction (Count)
system.cpu.commit.committedInstType_0::SimdUnitStrideMaskStore            0      0.00%    100.00% # Class of committed instruction (Count)
system.cpu.commit.committedInstType_0::SimdStridedLoad            0      0.00%    100.00% # Class of committed instruction (Count)
system.cpu.commit.committedInstType_0::SimdStridedStore            0      0.00%    100.00% # Class of committed instruction (Count)
system.cpu.commit.committedInstType_0::SimdIndexedLoad            0      0.00%    100.00% # Class of committed instruction (Count)
system.cpu.commit.committedInstType_0::SimdIndexedStore            0      0.00%    100.00% # Class of committed instruction (Count)
system.cpu.commit.committedInstType_0::SimdWholeRegisterLoad            0      0.00%    100.00% # Class of committed instruction (Count)
system.cpu.commit.committedInstType_0::SimdWholeRegisterStore            0      0.00%    100.00% # Class of committed instruction (Count)
system.cpu.commit.committedInstType_0::SimdUnitStrideFaultOnlyFirstLoad            0      0.00%    100.00% # Class of committed instruction (Count)
system.cpu.commit.committedInstType_0::SimdUnitStrideSegmentedLoad            0      0.00%    100.00% # Class of committed instruction (Count)
system.cpu.commit.committedInstType_0::SimdUnitStrideSegmentedStore            0      0.00%    100.00% # Class of committed instruction (Count)
system.cpu.commit.committedInstType_0::SimdExt            0      0.00%    100.00% # Class of committed instruction (Count)
system.cpu.commit.committedInstType_0::SimdFloatExt            0      0.00%    100.00% # Class of committed instruction (Count)
system.cpu.commit.committedInstType_0::SimdConfig            0      0.00%    100.00% # Class of committed instruction (Count)
system.cpu.commit.committedInstType_0::total   6752832789                       # Class of committed instruction (Count)
system.cpu.commit.commitEligibleSamples     482212921                       # number cycles where commit BW limit reached (Cycle)
system.cpu.commitStats0.numInsts           3985477993                       # Number of instructions committed (thread level) (Count)
system.cpu.commitStats0.numOps             6752832789                       # Number of ops (including micro ops) committed (thread level) (Count)
system.cpu.commitStats0.numInstsNotNOP     3985477993                       # Number of instructions committed excluding NOPs or prefetches (Count)
system.cpu.commitStats0.numOpsNotNOP       6752832789                       # Number of Ops (including micro ops) Simulated (Count)
system.cpu.commitStats0.cpi                  2.700783                       # CPI: cycles per instruction (thread level) ((Cycle/Count))
system.cpu.commitStats0.ipc                  0.370263                       # IPC: instructions per cycle (thread level) ((Count/Cycle))
system.cpu.commitStats0.numMemRefs         2350017269                       # Number of memory references committed (Count)
system.cpu.commitStats0.numFpInsts          520931518                       # Number of float instructions (Count)
system.cpu.commitStats0.numIntInsts        6467204503                       # Number of integer instructions (Count)
system.cpu.commitStats0.numLoadInsts       1472544022                       # Number of load instructions (Count)
system.cpu.commitStats0.numStoreInsts       877473247                       # Number of store instructions (Count)
system.cpu.commitStats0.numVecInsts                 0                       # Number of vector instructions (Count)
system.cpu.commitStats0.committedInstType::No_OpClass       125633      0.00%      0.00% # Class of committed instruction. (Count)
system.cpu.commitStats0.committedInstType::IntAlu   4047417051     59.94%     59.94% # Class of committed instruction. (Count)
system.cpu.commitStats0.committedInstType::IntMult     28562131      0.42%     60.36% # Class of committed instruction. (Count)
system.cpu.commitStats0.committedInstType::IntDiv         3677      0.00%     60.36% # Class of committed instruction. (Count)
system.cpu.commitStats0.committedInstType::FloatAdd    127830639      1.89%     62.25% # Class of committed instruction. (Count)
system.cpu.commitStats0.committedInstType::FloatCmp            0      0.00%     62.25% # Class of committed instruction. (Count)
system.cpu.commitStats0.committedInstType::FloatCvt          384      0.00%     62.25% # Class of committed instruction. (Count)
system.cpu.commitStats0.committedInstType::FloatMult            0      0.00%     62.25% # Class of committed instruction. (Count)
system.cpu.commitStats0.committedInstType::FloatMultAcc            0      0.00%     62.25% # Class of committed instruction. (Count)
system.cpu.commitStats0.committedInstType::FloatDiv            0      0.00%     62.25% # Class of committed instruction. (Count)
system.cpu.commitStats0.committedInstType::FloatMisc            0      0.00%     62.25% # Class of committed instruction. (Count)
system.cpu.commitStats0.committedInstType::FloatSqrt            0      0.00%     62.25% # Class of committed instruction. (Count)
system.cpu.commitStats0.committedInstType::SimdAdd           20      0.00%     62.25% # Class of committed instruction. (Count)
system.cpu.commitStats0.committedInstType::SimdAddAcc            0      0.00%     62.25% # Class of committed instruction. (Count)
system.cpu.commitStats0.committedInstType::SimdAlu     47399676      0.70%     62.96% # Class of committed instruction. (Count)
system.cpu.commitStats0.committedInstType::SimdCmp            0      0.00%     62.96% # Class of committed instruction. (Count)
system.cpu.commitStats0.committedInstType::SimdCvt          256      0.00%     62.96% # Class of committed instruction. (Count)
system.cpu.commitStats0.committedInstType::SimdMisc     42628151      0.63%     63.59% # Class of committed instruction. (Count)
system.cpu.commitStats0.committedInstType::SimdMult            0      0.00%     63.59% # Class of committed instruction. (Count)
system.cpu.commitStats0.committedInstType::SimdMultAcc            0      0.00%     63.59% # Class of committed instruction. (Count)
system.cpu.commitStats0.committedInstType::SimdMatMultAcc            0      0.00%     63.59% # Class of committed instruction. (Count)
system.cpu.commitStats0.committedInstType::SimdShift           30      0.00%     63.59% # Class of committed instruction. (Count)
system.cpu.commitStats0.committedInstType::SimdShiftAcc            0      0.00%     63.59% # Class of committed instruction. (Count)
system.cpu.commitStats0.committedInstType::SimdDiv            0      0.00%     63.59% # Class of committed instruction. (Count)
system.cpu.commitStats0.committedInstType::SimdSqrt            0      0.00%     63.59% # Class of committed instruction. (Count)
system.cpu.commitStats0.committedInstType::SimdFloatAdd     23649024      0.35%     63.94% # Class of committed instruction. (Count)
system.cpu.commitStats0.committedInstType::SimdFloatAlu            0      0.00%     63.94% # Class of committed instruction. (Count)
system.cpu.commitStats0.committedInstType::SimdFloatCmp            0      0.00%     63.94% # Class of committed instruction. (Count)
system.cpu.commitStats0.committedInstType::SimdFloatCvt     61549824      0.91%     64.85% # Class of committed instruction. (Count)
system.cpu.commitStats0.committedInstType::SimdFloatDiv      4723968      0.07%     64.92% # Class of committed instruction. (Count)
system.cpu.commitStats0.committedInstType::SimdFloatMisc            0      0.00%     64.92% # Class of committed instruction. (Count)
system.cpu.commitStats0.committedInstType::SimdFloatMult     18925056      0.28%     65.20% # Class of committed instruction. (Count)
system.cpu.commitStats0.committedInstType::SimdFloatMultAcc            0      0.00%     65.20% # Class of committed instruction. (Count)
system.cpu.commitStats0.committedInstType::SimdFloatMatMultAcc            0      0.00%     65.20% # Class of committed instruction. (Count)
system.cpu.commitStats0.committedInstType::SimdFloatSqrt            0      0.00%     65.20% # Class of committed instruction. (Count)
system.cpu.commitStats0.committedInstType::SimdReduceAdd            0      0.00%     65.20% # Class of committed instruction. (Count)
system.cpu.commitStats0.committedInstType::SimdReduceAlu            0      0.00%     65.20% # Class of committed instruction. (Count)
system.cpu.commitStats0.committedInstType::SimdReduceCmp            0      0.00%     65.20% # Class of committed instruction. (Count)
system.cpu.commitStats0.committedInstType::SimdFloatReduceAdd            0      0.00%     65.20% # Class of committed instruction. (Count)
system.cpu.commitStats0.committedInstType::SimdFloatReduceCmp            0      0.00%     65.20% # Class of committed instruction. (Count)
system.cpu.commitStats0.committedInstType::SimdAes            0      0.00%     65.20% # Class of committed instruction. (Count)
system.cpu.commitStats0.committedInstType::SimdAesMix            0      0.00%     65.20% # Class of committed instruction. (Count)
system.cpu.commitStats0.committedInstType::SimdSha1Hash            0      0.00%     65.20% # Class of committed instruction. (Count)
system.cpu.commitStats0.committedInstType::SimdSha1Hash2            0      0.00%     65.20% # Class of committed instruction. (Count)
system.cpu.commitStats0.committedInstType::SimdSha256Hash            0      0.00%     65.20% # Class of committed instruction. (Count)
system.cpu.commitStats0.committedInstType::SimdSha256Hash2            0      0.00%     65.20% # Class of committed instruction. (Count)
system.cpu.commitStats0.committedInstType::SimdShaSigma2            0      0.00%     65.20% # Class of committed instruction. (Count)
system.cpu.commitStats0.committedInstType::SimdShaSigma3            0      0.00%     65.20% # Class of committed instruction. (Count)
system.cpu.commitStats0.committedInstType::SimdPredAlu            0      0.00%     65.20% # Class of committed instruction. (Count)
system.cpu.commitStats0.committedInstType::Matrix            0      0.00%     65.20% # Class of committed instruction. (Count)
system.cpu.commitStats0.committedInstType::MatrixMov            0      0.00%     65.20% # Class of committed instruction. (Count)
system.cpu.commitStats0.committedInstType::MatrixOP            0      0.00%     65.20% # Class of committed instruction. (Count)
system.cpu.commitStats0.committedInstType::MemRead   1325782500     19.63%     84.83% # Class of committed instruction. (Count)
system.cpu.commitStats0.committedInstType::MemWrite    830010296     12.29%     97.12% # Class of committed instruction. (Count)
system.cpu.commitStats0.committedInstType::FloatMemRead    146761522      2.17%     99.30% # Class of committed instruction. (Count)
system.cpu.commitStats0.committedInstType::FloatMemWrite     47462951      0.70%    100.00% # Class of committed instruction. (Count)
system.cpu.commitStats0.committedInstType::IprAccess            0      0.00%    100.00% # Class of committed instruction. (Count)
system.cpu.commitStats0.committedInstType::InstPrefetch            0      0.00%    100.00% # Class of committed instruction. (Count)
system.cpu.commitStats0.committedInstType::SimdUnitStrideLoad            0      0.00%    100.00% # Class of committed instruction. (Count)
system.cpu.commitStats0.committedInstType::SimdUnitStrideStore            0      0.00%    100.00% # Class of committed instruction. (Count)
system.cpu.commitStats0.committedInstType::SimdUnitStrideMaskLoad            0      0.00%    100.00% # Class of committed instruction. (Count)
system.cpu.commitStats0.committedInstType::SimdUnitStrideMaskStore            0      0.00%    100.00% # Class of committed instruction. (Count)
system.cpu.commitStats0.committedInstType::SimdStridedLoad            0      0.00%    100.00% # Class of committed instruction. (Count)
system.cpu.commitStats0.committedInstType::SimdStridedStore            0      0.00%    100.00% # Class of committed instruction. (Count)
system.cpu.commitStats0.committedInstType::SimdIndexedLoad            0      0.00%    100.00% # Class of committed instruction. (Count)
system.cpu.commitStats0.committedInstType::SimdIndexedStore            0      0.00%    100.00% # Class of committed instruction. (Count)
system.cpu.commitStats0.committedInstType::SimdWholeRegisterLoad            0      0.00%    100.00% # Class of committed instruction. (Count)
system.cpu.commitStats0.committedInstType::SimdWholeRegisterStore            0      0.00%    100.00% # Class of committed instruction. (Count)
system.cpu.commitStats0.committedInstType::SimdUnitStrideFaultOnlyFirstLoad            0      0.00%    100.00% # Class of committed instruction. (Count)
system.cpu.commitStats0.committedInstType::SimdUnitStrideSegmentedLoad            0      0.00%    100.00% # Class of committed instruction. (Count)
system.cpu.commitStats0.committedInstType::SimdUnitStrideSegmentedStore            0      0.00%    100.00% # Class of committed instruction. (Count)
system.cpu.commitStats0.committedInstType::SimdExt            0      0.00%    100.00% # Class of committed instruction. (Count)
system.cpu.commitStats0.committedInstType::SimdFloatExt            0      0.00%    100.00% # Class of committed instruction. (Count)
system.cpu.commitStats0.committedInstType::SimdConfig            0      0.00%    100.00% # Class of committed instruction. (Count)
system.cpu.commitStats0.committedInstType::total   6752832789                       # Class of committed instruction. (Count)
system.cpu.commitStats0.committedControl::IsControl    526492215                       # Class of control type instructions committed (Count)
system.cpu.commitStats0.committedControl::IsDirectControl    323730723                       # Class of control type instructions committed (Count)
system.cpu.commitStats0.committedControl::IsIndirectControl    202761492                       # Class of control type instructions committed (Count)
system.cpu.commitStats0.committedControl::IsCondControl    124210442                       # Class of control type instructions committed (Count)
system.cpu.commitStats0.committedControl::IsUncondControl    402281773                       # Class of control type instructions committed (Count)
system.cpu.commitStats0.committedControl::IsCall    197792908                       # Class of control type instructions committed (Count)
system.cpu.commitStats0.committedControl::IsReturn    197792904                       # Class of control type instructions committed (Count)
system.cpu.dcache.demandHits::cpu.data     1366722291                       # number of demand (read+write) hits (Count)
system.cpu.dcache.demandHits::total        1366722291                       # number of demand (read+write) hits (Count)
system.cpu.dcache.overallHits::cpu.data    1366722291                       # number of overall hits (Count)
system.cpu.dcache.overallHits::total       1366722291                       # number of overall hits (Count)
system.cpu.dcache.demandMisses::cpu.data     30912501                       # number of demand (read+write) misses (Count)
system.cpu.dcache.demandMisses::total        30912501                       # number of demand (read+write) misses (Count)
system.cpu.dcache.overallMisses::cpu.data     30912501                       # number of overall misses (Count)
system.cpu.dcache.overallMisses::total       30912501                       # number of overall misses (Count)
system.cpu.dcache.demandMissLatency::cpu.data 2801275814280                       # number of demand (read+write) miss ticks (Tick)
system.cpu.dcache.demandMissLatency::total 2801275814280                       # number of demand (read+write) miss ticks (Tick)
system.cpu.dcache.overallMissLatency::cpu.data 2801275814280                       # number of overall miss ticks (Tick)
system.cpu.dcache.overallMissLatency::total 2801275814280                       # number of overall miss ticks (Tick)
system.cpu.dcache.demandAccesses::cpu.data   1397634792                       # number of demand (read+write) accesses (Count)
system.cpu.dcache.demandAccesses::total    1397634792                       # number of demand (read+write) accesses (Count)
system.cpu.dcache.overallAccesses::cpu.data   1397634792                       # number of overall (read+write) accesses (Count)
system.cpu.dcache.overallAccesses::total   1397634792                       # number of overall (read+write) accesses (Count)
system.cpu.dcache.demandMissRate::cpu.data     0.022118                       # miss rate for demand accesses (Ratio)
system.cpu.dcache.demandMissRate::total      0.022118                       # miss rate for demand accesses (Ratio)
system.cpu.dcache.overallMissRate::cpu.data     0.022118                       # miss rate for overall accesses (Ratio)
system.cpu.dcache.overallMissRate::total     0.022118                       # miss rate for overall accesses (Ratio)
system.cpu.dcache.demandAvgMissLatency::cpu.data 90619.513907                       # average overall miss latency in ticks ((Tick/Count))
system.cpu.dcache.demandAvgMissLatency::total 90619.513907                       # average overall miss latency in ticks ((Tick/Count))
system.cpu.dcache.overallAvgMissLatency::cpu.data 90619.513907                       # average overall miss latency ((Tick/Count))
system.cpu.dcache.overallAvgMissLatency::total 90619.513907                       # average overall miss latency ((Tick/Count))
system.cpu.dcache.blockedCycles::no_mshrs      2022527                       # number of cycles access was blocked (Cycle)
system.cpu.dcache.blockedCycles::no_targets        22628                       # number of cycles access was blocked (Cycle)
system.cpu.dcache.blockedCauses::no_mshrs         3786                       # number of times access was blocked (Count)
system.cpu.dcache.blockedCauses::no_targets           35                       # number of times access was blocked (Count)
system.cpu.dcache.avgBlocked::no_mshrs     534.212097                       # average number of cycles each access was blocked ((Cycle/Count))
system.cpu.dcache.avgBlocked::no_targets   646.514286                       # average number of cycles each access was blocked ((Cycle/Count))
system.cpu.dcache.writebacks::writebacks      2135492                       # number of writebacks (Count)
system.cpu.dcache.writebacks::total           2135492                       # number of writebacks (Count)
system.cpu.dcache.demandMshrHits::cpu.data       140977                       # number of demand (read+write) MSHR hits (Count)
system.cpu.dcache.demandMshrHits::total        140977                       # number of demand (read+write) MSHR hits (Count)
system.cpu.dcache.overallMshrHits::cpu.data       140977                       # number of overall MSHR hits (Count)
[...]
system.l2.ReadSharedReq.accesses::total      28842869                       # number of ReadSharedReq accesses(hits+misses) (Count)
system.l2.ReadSharedReq.missRate::cpu.data     0.118603                       # miss rate for ReadSharedReq accesses (Ratio)
system.l2.ReadSharedReq.missRate::total      0.118603                       # miss rate for ReadSharedReq accesses (Ratio)
system.l2.ReadSharedReq.avgMissLatency::cpu.data 403624.735385                       # average ReadSharedReq miss latency ((Tick/Count))
system.l2.ReadSharedReq.avgMissLatency::total 403624.735385                       # average ReadSharedReq miss latency ((Tick/Count))
system.l2.ReadSharedReq.mshrMisses::cpu.data      3420846                       # number of ReadSharedReq MSHR misses (Count)
system.l2.ReadSharedReq.mshrMisses::total      3420846                       # number of ReadSharedReq MSHR misses (Count)
system.l2.ReadSharedReq.mshrMissLatency::cpu.data 1358791811518                       # number of ReadSharedReq MSHR miss ticks (Tick)
system.l2.ReadSharedReq.mshrMissLatency::total 1358791811518                       # number of ReadSharedReq MSHR miss ticks (Tick)
system.l2.ReadSharedReq.mshrMissRate::cpu.data     0.118603                       # mshr miss rate for ReadSharedReq accesses (Ratio)
system.l2.ReadSharedReq.mshrMissRate::total     0.118603                       # mshr miss rate for ReadSharedReq accesses (Ratio)
system.l2.ReadSharedReq.avgMshrMissLatency::cpu.data 397209.290193                       # average ReadSharedReq mshr miss latency ((Tick/Count))
system.l2.ReadSharedReq.avgMshrMissLatency::total 397209.290193                       # average ReadSharedReq mshr miss latency ((Tick/Count))
system.l2.UpgradeReq.hits::cpu.data                 3                       # number of UpgradeReq hits (Count)
system.l2.UpgradeReq.hits::total                    3                       # number of UpgradeReq hits (Count)
system.l2.UpgradeReq.accesses::cpu.data             3                       # number of UpgradeReq accesses(hits+misses) (Count)
system.l2.UpgradeReq.accesses::total                3                       # number of UpgradeReq accesses(hits+misses) (Count)
system.l2.WritebackClean.hits::writebacks       274263                       # number of WritebackClean hits (Count)
system.l2.WritebackClean.hits::total           274263                       # number of WritebackClean hits (Count)
system.l2.WritebackClean.accesses::writebacks       274263                       # number of WritebackClean accesses(hits+misses) (Count)
system.l2.WritebackClean.accesses::total       274263                       # number of WritebackClean accesses(hits+misses) (Count)
system.l2.WritebackDirty.hits::writebacks      2135492                       # number of WritebackDirty hits (Count)
system.l2.WritebackDirty.hits::total          2135492                       # number of WritebackDirty hits (Count)
system.l2.WritebackDirty.accesses::writebacks      2135492                       # number of WritebackDirty accesses(hits+misses) (Count)
system.l2.WritebackDirty.accesses::total      2135492                       # number of WritebackDirty accesses(hits+misses) (Count)
system.l2.power_state.pwrStateResidencyTicks::UNDEFINED 3369104586208                       # Cumulative time (in ticks) in various power states (Tick)
system.l2.tags.tagsInUse                 32709.459911                       # Average ticks per tags in use ((Tick/Count))
system.l2.tags.totalRefs                     62091143                       # Total number of references to valid blocks. (Count)
system.l2.tags.sampledRefs                    5256248                       # Sample count of references to valid blocks. (Count)
system.l2.tags.avgRefs                      11.812826                       # Average number of references to valid blocks. ((Count/Count))
system.l2.tags.warmupTick                      430000                       # The tick when the warmup percentage was hit. (Tick)
system.l2.tags.occupancies::writebacks      10.296067                       # Average occupied blocks per tick, per requestor ((Count/Tick))
system.l2.tags.occupancies::cpu.inst        10.699426                       # Average occupied blocks per tick, per requestor ((Count/Tick))
system.l2.tags.occupancies::cpu.data     32688.464419                       # Average occupied blocks per tick, per requestor ((Count/Tick))
system.l2.tags.avgOccs::writebacks           0.000314                       # Average percentage of cache occupancy ((Ratio/Tick))
system.l2.tags.avgOccs::cpu.inst             0.000327                       # Average percentage of cache occupancy ((Ratio/Tick))
system.l2.tags.avgOccs::cpu.data             0.997573                       # Average percentage of cache occupancy ((Ratio/Tick))
system.l2.tags.avgOccs::total                0.998213                       # Average percentage of cache occupancy ((Ratio/Tick))
system.l2.tags.occupanciesTaskId::1024          32768                       # Occupied blocks per task id (Count)
system.l2.tags.ageTaskId_1024::0                   18                       # Occupied blocks per task id, per block age (Count)
system.l2.tags.ageTaskId_1024::1                  182                       # Occupied blocks per task id, per block age (Count)
system.l2.tags.ageTaskId_1024::2                  939                       # Occupied blocks per task id, per block age (Count)
system.l2.tags.ageTaskId_1024::3                 9365                       # Occupied blocks per task id, per block age (Count)
system.l2.tags.ageTaskId_1024::4                22264                       # Occupied blocks per task id, per block age (Count)
system.l2.tags.ratioOccsTaskId::1024                1                       # Ratio of occupied blocks and all blocks, per task id (Ratio)
system.l2.tags.tagAccesses                  501988008                       # Number of tag accesses (Count)
system.l2.tags.dataAccesses                 501988008                       # Number of data accesses (Count)
system.l2.tags.power_state.pwrStateResidencyTicks::UNDEFINED 3369104586208                       # Cumulative time (in ticks) in various power states (Tick)
system.mem_ctrls.bytesRead::cpu.inst           152128                       # Number of bytes read from this memory (Byte)
system.mem_ctrls.bytesRead::cpu.data        336155840                       # Number of bytes read from this memory (Byte)
system.mem_ctrls.bytesRead::total           336307968                       # Number of bytes read from this memory (Byte)
system.mem_ctrls.bytesInstRead::cpu.inst       152128                       # Number of instructions bytes read from this memory (Byte)
system.mem_ctrls.bytesInstRead::total          152128                       # Number of instructions bytes read from this memory (Byte)
system.mem_ctrls.bytesWritten::writebacks    119927808                       # Number of bytes written to this memory (Byte)
system.mem_ctrls.bytesWritten::total        119927808                       # Number of bytes written to this memory (Byte)
system.mem_ctrls.numReads::cpu.inst              2377                       # Number of read requests responded to by this memory (Count)
system.mem_ctrls.numReads::cpu.data           5252435                       # Number of read requests responded to by this memory (Count)
system.mem_ctrls.numReads::total              5254812                       # Number of read requests responded to by this memory (Count)
system.mem_ctrls.numWrites::writebacks        1873872                       # Number of write requests responded to by this memory (Count)
system.mem_ctrls.numWrites::total             1873872                       # Number of write requests responded to by this memory (Count)
system.mem_ctrls.bwRead::cpu.inst               45154                       # Total read bandwidth from this memory ((Byte/Second))
system.mem_ctrls.bwRead::cpu.data            99776018                       # Total read bandwidth from this memory ((Byte/Second))
system.mem_ctrls.bwRead::total               99821172                       # Total read bandwidth from this memory ((Byte/Second))
system.mem_ctrls.bwInstRead::cpu.inst           45154                       # Instruction read bandwidth from this memory ((Byte/Second))
system.mem_ctrls.bwInstRead::total              45154                       # Instruction read bandwidth from this memory ((Byte/Second))
system.mem_ctrls.bwWrite::writebacks         35596345                       # Write bandwidth from this memory ((Byte/Second))
system.mem_ctrls.bwWrite::total              35596345                       # Write bandwidth from this memory ((Byte/Second))
system.mem_ctrls.bwTotal::writebacks         35596345                       # Total bandwidth to/from this memory ((Byte/Second))
system.mem_ctrls.bwTotal::cpu.inst              45154                       # Total bandwidth to/from this memory ((Byte/Second))
system.mem_ctrls.bwTotal::cpu.data           99776018                       # Total bandwidth to/from this memory ((Byte/Second))
system.mem_ctrls.bwTotal::total             135417517                       # Total bandwidth to/from this memory ((Byte/Second))
system.mem_ctrls.power_state.pwrStateResidencyTicks::UNDEFINED 3369104586208                       # Cumulative time (in ticks) in various power states (Tick)
system.membus.transDist::ReadResp             3423223                       # Transaction distribution (Count)
system.membus.transDist::WritebackDirty       1873872                       # Transaction distribution (Count)
system.membus.transDist::CleanEvict           3347865                       # Transaction distribution (Count)
system.membus.transDist::ReadExReq            1831589                       # Transaction distribution (Count)
system.membus.transDist::ReadExResp           1831589                       # Transaction distribution (Count)
system.membus.transDist::ReadSharedReq        3423223                       # Transaction distribution (Count)
system.membus.pktCount_system.l2.mem_side_port::system.mem_ctrls.port     15731361                       # Packet count per connected requestor and responder (Count)
system.membus.pktCount_system.l2.mem_side_port::total     15731361                       # Packet count per connected requestor and responder (Count)
system.membus.pktCount::total                15731361                       # Packet count per connected requestor and responder (Count)
system.membus.pktSize_system.l2.mem_side_port::system.mem_ctrls.port    456235776                       # Cumulative packet size per connected requestor and responder (Byte)
system.membus.pktSize_system.l2.mem_side_port::total    456235776                       # Cumulative packet size per connected requestor and responder (Byte)
system.membus.pktSize::total                456235776                       # Cumulative packet size per connected requestor and responder (Byte)
system.membus.snoops                                0                       # Total snoops (Count)
system.membus.snoopTraffic                          0                       # Total snoop traffic (Byte)
system.membus.snoopFanout::samples            5254812                       # Request fanout histogram (Count)
system.membus.snoopFanout::mean                     0                       # Request fanout histogram (Count)
system.membus.snoopFanout::stdev                    0                       # Request fanout histogram (Count)
system.membus.snoopFanout::underflows               0      0.00%      0.00% # Request fanout histogram (Count)
system.membus.snoopFanout::0                  5254812    100.00%    100.00% # Request fanout histogram (Count)
system.membus.snoopFanout::1                        0      0.00%    100.00% # Request fanout histogram (Count)
system.membus.snoopFanout::overflows                0      0.00%    100.00% # Request fanout histogram (Count)
system.membus.snoopFanout::min_value                0                       # Request fanout histogram (Count)
system.membus.snoopFanout::max_value                0                       # Request fanout histogram (Count)
system.membus.snoopFanout::total              5254812                       # Request fanout histogram (Count)
system.membus.power_state.pwrStateResidencyTicks::UNDEFINED 3369104586208                       # Cumulative time (in ticks) in various power states (Tick)
system.membus.reqLayer2.occupancy         56233226644                       # Layer occupancy (ticks) (Tick)
system.membus.reqLayer2.utilization               0.0                       # Layer utilization (Ratio)
system.membus.respLayer1.occupancy        72130039041                       # Layer occupancy (ticks) (Tick)
system.membus.respLayer1.utilization              0.0                       # Layer utilization (Ratio)
system.membus.snoop_filter.totRequests       10476549                       # Total number of requests made to the snoop filter. (Count)
system.membus.snoop_filter.hitSingleRequests      5221737                       # Number of requests hitting in the snoop filter with a single holder of the requested data. (Count)
system.membus.snoop_filter.hitMultiRequests            0                       # Number of requests hitting in the snoop filter with multiple (>1) holders of the requested data. (Count)
system.membus.snoop_filter.totSnoops                0                       # Total number of snoops made to the snoop filter. (Count)
system.membus.snoop_filter.hitSingleSnoops            0                       # Number of snoops hitting in the snoop filter with a single holder of the requested data. (Count)
system.membus.snoop_filter.hitMultiSnoops            0                       # Number of snoops hitting in the snoop filter with multiple (>1) holders of the requested data. (Count)
system.tol2bus.transDist::ReadResp           29117650                       # Transaction distribution (Count)
system.tol2bus.transDist::WritebackDirty      4009364                       # Transaction distribution (Count)
system.tol2bus.transDist::WritebackClean       274267                       # Transaction distribution (Count)
system.tol2bus.transDist::CleanEvict         31985126                       # Transaction distribution (Count)
system.tol2bus.transDist::UpgradeReq                3                       # Transaction distribution (Count)
system.tol2bus.transDist::UpgradeResp               3                       # Transaction distribution (Count)
system.tol2bus.transDist::ReadExReq           1928653                       # Transaction distribution (Count)
system.tol2bus.transDist::ReadExResp          1928653                       # Transaction distribution (Count)
system.tol2bus.transDist::ReadCleanReq         274782                       # Transaction distribution (Count)
system.tol2bus.transDist::ReadSharedReq      28842869                       # Transaction distribution (Count)
system.tol2bus.pktCount_system.cpu.icache.mem_side_port::system.l2.cpu_side_port       823823                       # Packet count per connected requestor and responder (Count)
system.tol2bus.pktCount_system.cpu.dcache.mem_side_port::system.l2.cpu_side_port     92314060                       # Packet count per connected requestor and responder (Count)
system.tol2bus.pktCount::total               93137883                       # Packet count per connected requestor and responder (Count)
system.tol2bus.pktSize_system.cpu.icache.mem_side_port::system.l2.cpu_side_port     35138624                       # Cumulative packet size per connected requestor and responder (Byte)
system.tol2bus.pktSize_system.cpu.dcache.mem_side_port::system.l2.cpu_side_port   2106048896                       # Cumulative packet size per connected requestor and responder (Byte)
system.tol2bus.pktSize::total              2141187520                       # Cumulative packet size per connected requestor and responder (Byte)
system.tol2bus.snoops                         5223487                       # Total snoops (Count)
system.tol2bus.snoopTraffic                 119928256                       # Total snoop traffic (Byte)
system.tol2bus.snoopFanout::samples          36269787                       # Request fanout histogram (Count)
system.tol2bus.snoopFanout::mean             0.000060                       # Request fanout histogram (Count)
system.tol2bus.snoopFanout::stdev            0.007763                       # Request fanout histogram (Count)
system.tol2bus.snoopFanout::underflows              0      0.00%      0.00% # Request fanout histogram (Count)
system.tol2bus.snoopFanout::0                36267601     99.99%     99.99% # Request fanout histogram (Count)
system.tol2bus.snoopFanout::1                    2186      0.01%    100.00% # Request fanout histogram (Count)
system.tol2bus.snoopFanout::2                       0      0.00%    100.00% # Request fanout histogram (Count)
system.tol2bus.snoopFanout::3                       0      0.00%    100.00% # Request fanout histogram (Count)
system.tol2bus.snoopFanout::4                       0      0.00%    100.00% # Request fanout histogram (Count)
system.tol2bus.snoopFanout::overflows               0      0.00%    100.00% # Request fanout histogram (Count)
system.tol2bus.snoopFanout::min_value               0                       # Request fanout histogram (Count)
system.tol2bus.snoopFanout::max_value               1                       # Request fanout histogram (Count)
system.tol2bus.snoopFanout::total            36269787                       # Request fanout histogram (Count)
system.tol2bus.power_state.pwrStateResidencyTicks::UNDEFINED 3369104586208                       # Cumulative time (in ticks) in various power states (Tick)
system.tol2bus.reqLayer0.occupancy        20943174926                       # Layer occupancy (ticks) (Tick)
system.tol2bus.reqLayer0.utilization              0.0                       # Layer utilization (Ratio)
system.tol2bus.respLayer0.occupancy         258021231                       # Layer occupancy (ticks) (Tick)
system.tol2bus.respLayer0.utilization             0.0                       # Layer utilization (Ratio)
system.tol2bus.respLayer1.occupancy       28894460097                       # Layer occupancy (ticks) (Tick)
system.tol2bus.respLayer1.utilization             0.0                       # Layer utilization (Ratio)
system.tol2bus.snoop_filter.totRequests      62091584                       # Total number of requests made to the snoop filter. (Count)
system.tol2bus.snoop_filter.hitSingleRequests     31045279                       # Number of requests hitting in the snoop filter with a single holder of the requested data. (Count)
system.tol2bus.snoop_filter.hitMultiRequests          116                       # Number of requests hitting in the snoop filter with multiple (>1) holders of the requested data. (Count)
system.tol2bus.snoop_filter.totSnoops            2068                       # Total number of snoops made to the snoop filter. (Count)
system.tol2bus.snoop_filter.hitSingleSnoops         2068                       # Number of snoops hitting in the snoop filter with a single holder of the requested data. (Count)
system.tol2bus.snoop_filter.hitMultiSnoops            0                       # Number of snoops hitting in the snoop filter with multiple (>1) holders of the requested data. (Count)
system.voltage_domain.voltage                       1                       # Voltage in Volts (Volt)
system.workload.inst.arm                            0                       # number of arm instructions executed (Count)
system.workload.inst.quiesce                        0                       # number of quiesce instructions executed (Count)

---------- End Simulation Statistics   ----------
