
---------- Begin Simulation Statistics ----------
simSeconds                                   6.707143                       # Number of seconds simulated (Second)
simTicks                                 6707143481086                       # Number of ticks simulated (Tick)
finalTick                                6707143481086                       # Number of ticks from beginning of simulation (restored from checkpoints and never reset) (Tick)
simFreq                                  1000000000000                       # The number of ticks per simulated second ((Tick/Second))
hostSeconds                                  49273.42                       # Real time elapsed on the host (Second)
hostTickRate                                136120915                       # The number of ticks simulated per host second (ticks/s) ((Tick/Second))
hostMemory                                    7720460                       # Number of bytes of host memory used (Byte)
simInsts                                  10716825422                       # Number of instructions simulated (Count)
simOps                                    17848796655                       # Number of ops (including micro ops) simulated (Count)
hostInstRate                                   217497                       # Simulator instruction rate (inst/s) ((Count/Second))
hostOpRate                                     362240                       # Simulator op (including micro ops) rate (op/s) ((Count/Second))
system.clk_domain.clock                          2500                       # Clock period in ticks (Tick)
system.cpu.numCycles                      21428573423                       # Number of cpu cycles simulated (Cycle)
system.cpu.cpi                               1.999526                       # CPI: cycles per instruction (core level) ((Cycle/Count))
system.cpu.ipc                               0.500118                       # IPC: instructions per cycle (core level) ((Count/Cycle))
system.cpu.numWorkItemsStarted                      0                       # Number of work items this cpu started (Count)
system.cpu.numWorkItemsCompleted                    0                       # Number of work items this cpu completed (Count)
system.cpu.instsAdded                     17872053850                       # Number of instructions added to the IQ (excludes non-spec) (Count)
system.cpu.nonSpecInstsAdded                     5549                       # Number of non-speculative instructions added to the IQ (Count)
system.cpu.instsIssued                    17865706675                       # Number of instructions issued (Count)
system.cpu.squashedInstsIssued                  17372                       # Number of squashed instructions issued (Count)
system.cpu.squashedInstsExamined             23262738                       # Number of squashed instructions iterated over during squash; mainly for profiling (Count)
system.cpu.squashedOperandsExamined          29647970                       # Number of squashed operands that are examined and possibly removed from graph (Count)
system.cpu.squashedNonSpecRemoved                1928                       # Number of squashed non-spec instructions that were removed (Count)
system.cpu.numIssuedDist::samples         21421230469                       # Number of insts issued each cycle (Count)
system.cpu.numIssuedDist::mean               0.834019                       # Number of insts issued each cycle (Count)
system.cpu.numIssuedDist::stdev              1.602599                       # Number of insts issued each cycle (Count)
system.cpu.numIssuedDist::underflows                0      0.00%      0.00% # Number of insts issued each cycle (Count)
system.cpu.numIssuedDist::0               15219266650     71.05%     71.05% # Number of insts issued each cycle (Count)
system.cpu.numIssuedDist::1                1780633668      8.31%     79.36% # Number of insts issued each cycle (Count)
system.cpu.numIssuedDist::2                1301126424      6.07%     85.43% # Number of insts issued each cycle (Count)
system.cpu.numIssuedDist::3                 969210668      4.52%     89.96% # Number of insts issued each cycle (Count)
system.cpu.numIssuedDist::4                 942051613      4.40%     94.36% # Number of insts issued each cycle (Count)
system.cpu.numIssuedDist::5                 657507492      3.07%     97.43% # Number of insts issued each cycle (Count)
system.cpu.numIssuedDist::6                 393538854      1.84%     99.26% # Number of insts issued each cycle (Count)
system.cpu.numIssuedDist::7                 104949681      0.49%     99.75% # Number of insts issued each cycle (Count)
system.cpu.numIssuedDist::8                  52945419      0.25%    100.00% # Number of insts issued each cycle (Count)
system.cpu.numIssuedDist::overflows                 0      0.00%    100.00% # Number of insts issued each cycle (Count)
system.cpu.numIssuedDist::min_value                 0                       # Number of insts issued each cycle (Count)
system.cpu.numIssuedDist::max_value                 8                       # Number of insts issued each cycle (Count)
system.cpu.numIssuedDist::total           21421230469                       # Number of insts issued each cycle (Count)
system.cpu.statFuBusy::No_OpClass                   0      0.00%      0.00% # attempts to use FU when none available (Count)
system.cpu.statFuBusy::IntAlu                 5962368      4.40%      4.40% # attempts to use FU when none available (Count)
system.cpu.statFuBusy::IntMult                      0      0.00%      4.40% # attempts to use FU when none available (Count)
system.cpu.statFuBusy::IntDiv                       0      0.00%      4.40% # attempts to use FU when none available (Count)
system.cpu.statFuBusy::FloatAdd                     0      0.00%      4.40% # attempts to use FU when none available (Count)
system.cpu.statFuBusy::FloatCmp                     0      0.00%      4.40% # attempts to use FU when none available (Count)
system.cpu.statFuBusy::FloatCvt                     0      0.00%      4.40% # attempts to use FU when none available (Count)
system.cpu.statFuBusy::FloatMult                    0      0.00%      4.40% # attempts to use FU when none available (Count)
system.cpu.statFuBusy::FloatMultAcc                 0      0.00%      4.40% # attempts to use FU when none available (Count)
system.cpu.statFuBusy::FloatDiv                     0      0.00%      4.40% # attempts to use FU when none available (Count)
system.cpu.statFuBusy::FloatMisc                    0      0.00%      4.40% # attempts to use FU when none available (Count)
system.cpu.statFuBusy::FloatSqrt                    0      0.00%      4.40% # attempts to use FU when none available (Count)
system.cpu.statFuBusy::SimdAdd                      0      0.00%      4.40% # attempts to use FU when none available (Count)
system.cpu.statFuBusy::SimdAddAcc                   0      0.00%      4.40% # attempts to use FU when none available (Count)
system.cpu.statFuBusy::SimdAlu                   4172      0.00%      4.41% # attempts to use FU when none available (Count)
system.cpu.statFuBusy::SimdCmp                      0      0.00%      4.41% # attempts to use FU when none available (Count)
system.cpu.statFuBusy::SimdCvt                      3      0.00%      4.41% # attempts to use FU when none available (Count)
system.cpu.statFuBusy::SimdMisc                     1      0.00%      4.41% # attempts to use FU when none available (Count)
system.cpu.statFuBusy::SimdMult                     0      0.00%      4.41% # attempts to use FU when none available (Count)
system.cpu.statFuBusy::SimdMultAcc                  0      0.00%      4.41% # attempts to use FU when none available (Count)
system.cpu.statFuBusy::SimdMatMultAcc               0      0.00%      4.41% # attempts to use FU when none available (Count)
system.cpu.statFuBusy::SimdShift                    2      0.00%      4.41% # attempts to use FU when none available (Count)
system.cpu.statFuBusy::SimdShiftAcc                 0      0.00%      4.41% # attempts to use FU when none available (Count)
system.cpu.statFuBusy::SimdDiv                      0      0.00%      4.41% # attempts to use FU when none available (Count)
system.cpu.statFuBusy::SimdSqrt                     0      0.00%      4.41% # attempts to use FU when none available (Count)
system.cpu.statFuBusy::SimdFloatAdd                 0      0.00%      4.41% # attempts to use FU when none available (Count)
system.cpu.statFuBusy::SimdFloatAlu                 0      0.00%      4.41% # attempts to use FU when none available (Count)
system.cpu.statFuBusy::SimdFloatCmp                 0      0.00%      4.41% # attempts to use FU when none available (Count)
system.cpu.statFuBusy::SimdFloatCvt                 0      0.00%      4.41% # attempts to use FU when none available (Count)
system.cpu.statFuBusy::SimdFloatDiv                 0      0.00%      4.41% # attempts to use FU when none available (Count)
system.cpu.statFuBusy::SimdFloatMisc                0      0.00%      4.41% # attempts to use FU when none available (Count)
system.cpu.statFuBusy::SimdFloatMult                0      0.00%      4.41% # attempts to use FU when none available (Count)
system.cpu.statFuBusy::SimdFloatMultAcc             0      0.00%      4.41% # attempts to use FU when none available (Count)
system.cpu.statFuBusy::SimdFloatMatMultAcc            0      0.00%      4.41% # attempts to use FU when none available (Count)
system.cpu.statFuBusy::SimdFloatSqrt                0      0.00%      4.41% # attempts to use FU when none available (Count)
system.cpu.statFuBusy::SimdReduceAdd                0      0.00%      4.41% # attempts to use FU when none available (Count)
system.cpu.statFuBusy::SimdReduceAlu                0      0.00%      4.41% # attempts to use FU when none available (Count)
system.cpu.statFuBusy::SimdReduceCmp                0      0.00%      4.41% # attempts to use FU when none available (Count)
system.cpu.statFuBusy::SimdFloatReduceAdd            0      0.00%      4.41% # attempts to use FU when none available (Count)
system.cpu.statFuBusy::SimdFloatReduceCmp            0      0.00%      4.41% # attempts to use FU when none available (Count)
system.cpu.statFuBusy::SimdAes                      0      0.00%      4.41% # attempts to use FU when none available (Count)
system.cpu.statFuBusy::SimdAesMix                   0      0.00%      4.41% # attempts to use FU when none available (Count)
system.cpu.statFuBusy::SimdSha1Hash                 0      0.00%      4.41% # attempts to use FU when none available (Count)
system.cpu.statFuBusy::SimdSha1Hash2                0      0.00%      4.41% # attempts to use FU when none available (Count)
system.cpu.statFuBusy::SimdSha256Hash               0      0.00%      4.41% # attempts to use FU when none available (Count)
system.cpu.statFuBusy::SimdSha256Hash2              0      0.00%      4.41% # attempts to use FU when none available (Count)
system.cpu.statFuBusy::SimdShaSigma2                0      0.00%      4.41% # attempts to use FU when none available (Count)
system.cpu.statFuBusy::SimdShaSigma3                0      0.00%      4.41% # attempts to use FU when none available (Count)
system.cpu.statFuBusy::SimdPredAlu                  0      0.00%      4.41% # attempts to use FU when none available (Count)
system.cpu.statFuBusy::Matrix                       0      0.00%      4.41% # attempts to use FU when none available (Count)
system.cpu.statFuBusy::MatrixMov                    0      0.00%      4.41% # attempts to use FU when none available (Count)
system.cpu.statFuBusy::MatrixOP                     0      0.00%      4.41% # attempts to use FU when none available (Count)
system.cpu.statFuBusy::MemRead               92485360     68.32%     72.72% # attempts to use FU when none available (Count)
system.cpu.statFuBusy::MemWrite              36927676     27.28%    100.00% # attempts to use FU when none available (Count)
system.cpu.statFuBusy::FloatMemRead               752      0.00%    100.00% # attempts to use FU when none available (Count)
system.cpu.statFuBusy::FloatMemWrite              303      0.00%    100.00% # attempts to use FU when none available (Count)
system.cpu.statFuBusy::IprAccess                    0      0.00%    100.00% # attempts to use FU when none available (Count)
system.cpu.statFuBusy::InstPrefetch                 0      0.00%    100.00% # attempts to use FU when none available (Count)
system.cpu.statFuBusy::SimdUnitStrideLoad            0      0.00%    100.00% # attempts to use FU when none available (Count)
system.cpu.statFuBusy::SimdUnitStrideStore            0      0.00%    100.00% # attempts to use FU when none available (Count)
system.cpu.statFuBusy::SimdUnitStrideMaskLoad            0      0.00%    100.00% # attempts to use FU when none available (Count)
system.cpu.statFuBusy::SimdUnitStrideMaskStore            0      0.00%    100.00% # attempts to use FU when none available (Count)
system.cpu.statFuBusy::SimdStridedLoad              0      0.00%    100.00% # attempts to use FU when none available (Count)
system.cpu.statFuBusy::SimdStridedStore             0      0.00%    100.00% # attempts to use FU when none available (Count)
system.cpu.statFuBusy::SimdIndexedLoad              0      0.00%    100.00% # attempts to use FU when none available (Count)
system.cpu.statFuBusy::SimdIndexedStore             0      0.00%    100.00% # attempts to use FU when none available (Count)
system.cpu.statFuBusy::SimdWholeRegisterLoad            0      0.00%    100.00% # attempts to use FU when none available (Count)
system.cpu.statFuBusy::SimdWholeRegisterStore            0      0.00%    100.00% # attempts to use FU when none available (Count)
system.cpu.statFuBusy::SimdUnitStrideFaultOnlyFirstLoad            0      0.00%    100.00% # attempts to use FU when none available (Count)
system.cpu.statFuBusy::SimdUnitStrideSegmentedLoad            0      0.00%    100.00% # attempts to use FU when none available (Count)
system.cpu.statFuBusy::SimdUnitStrideSegmentedStore            0      0.00%    100.00% # attempts to use FU when none available (Count)
system.cpu.statFuBusy::SimdExt                      0      0.00%    100.00% # attempts to use FU when none available (Count)
system.cpu.statFuBusy::SimdFloatExt                 0      0.00%    100.00% # attempts to use FU when none available (Count)
system.cpu.statFuBusy::SimdConfig                   0      0.00%    100.00% # attempts to use FU when none available (Count)
system.cpu.statIssuedInstType_0::No_OpClass       315519      0.00%      0.00% # Number of instructions issued per FU type, per thread (Count)
system.cpu.statIssuedInstType_0::IntAlu   10468314548     58.59%     58.60% # Number of instructions issued per FU type, per thread (Count)
system.cpu.statIssuedInstType_0::IntMult     60962974      0.34%     58.94% # Number of instructions issued per FU type, per thread (Count)
system.cpu.statIssuedInstType_0::IntDiv          4362      0.00%     58.94% # Number of instructions issued per FU type, per thread (Count)
system.cpu.statIssuedInstType_0::FloatAdd    352151096      1.97%     60.91% # Number of instructions issued per FU type, per thread (Count)
system.cpu.statIssuedInstType_0::FloatCmp            0      0.00%     60.91% # Number of instructions issued per FU type, per thread (Count)
system.cpu.statIssuedInstType_0::FloatCvt          500      0.00%     60.91% # Number of instructions issued per FU type, per thread (Count)
system.cpu.statIssuedInstType_0::FloatMult            0      0.00%     60.91% # Number of instructions issued per FU type, per thread (Count)
system.cpu.statIssuedInstType_0::FloatMultAcc            0      0.00%     60.91% # Number of instructions issued per FU type, per thread (Count)
system.cpu.statIssuedInstType_0::FloatDiv            0      0.00%     60.91% # Number of instructions issued per FU type, per thread (Count)
system.cpu.statIssuedInstType_0::FloatMisc            0      0.00%     60.91% # Number of instructions issued per FU type, per thread (Count)
system.cpu.statIssuedInstType_0::FloatSqrt            0      0.00%     60.91% # Number of instructions issued per FU type, per thread (Count)
system.cpu.statIssuedInstType_0::SimdAdd           36      0.00%     60.91% # Number of instructions issued per FU type, per thread (Count)
system.cpu.statIssuedInstType_0::SimdAddAcc            0      0.00%     60.91% # Number of instructions issued per FU type, per thread (Count)
system.cpu.statIssuedInstType_0::SimdAlu    118829044      0.67%     61.57% # Number of instructions issued per FU type, per thread (Count)
system.cpu.statIssuedInstType_0::SimdCmp            0      0.00%     61.57% # Number of instructions issued per FU type, per thread (Count)
system.cpu.statIssuedInstType_0::SimdCvt          342      0.00%     61.57% # Number of instructions issued per FU type, per thread (Count)
system.cpu.statIssuedInstType_0::SimdMisc    117445384      0.66%     62.23% # Number of instructions issued per FU type, per thread (Count)
system.cpu.statIssuedInstType_0::SimdMult            0      0.00%     62.23% # Number of instructions issued per FU type, per thread (Count)
system.cpu.statIssuedInstType_0::SimdMultAcc            0      0.00%     62.23% # Number of instructions issued per FU type, per thread (Count)
system.cpu.statIssuedInstType_0::SimdMatMultAcc            0      0.00%     62.23% # Number of instructions issued per FU type, per thread (Count)
system.cpu.statIssuedInstType_0::SimdShift           34      0.00%     62.23% # Number of instructions issued per FU type, per thread (Count)
system.cpu.statIssuedInstType_0::SimdShiftAcc            0      0.00%     62.23% # Number of instructions issued per FU type, per thread (Count)
system.cpu.statIssuedInstType_0::SimdDiv            0      0.00%     62.23% # Number of instructions issued per FU type, per thread (Count)
system.cpu.statIssuedInstType_0::SimdSqrt            0      0.00%     62.23% # Number of instructions issued per FU type, per thread (Count)
system.cpu.statIssuedInstType_0::SimdFloatAdd     59214355      0.33%     62.56% # Number of instructions issued per FU type, per thread (Count)
system.cpu.statIssuedInstType_0::SimdFloatAlu            0      0.00%     62.56% # Number of instructions issued per FU type, per thread (Count)
system.cpu.statIssuedInstType_0::SimdFloatCmp            0      0.00%     62.56% # Number of instructions issued per FU type, per thread (Count)
system.cpu.statIssuedInstType_0::SimdFloatCvt    175413222      0.98%     63.54% # Number of instructions issued per FU type, per thread (Count)
system.cpu.statIssuedInstType_0::SimdFloatDiv      1238305      0.01%     63.55% # Number of instructions issued per FU type, per thread (Count)
system.cpu.statIssuedInstType_0::SimdFloatMisc            0      0.00%     63.55% # Number of instructions issued per FU type, per thread (Count)
system.cpu.statIssuedInstType_0::SimdFloatMult     57977296      0.32%     63.88% # Number of instructions issued per FU type, per thread (Count)
system.cpu.statIssuedInstType_0::SimdFloatMultAcc            0      0.00%     63.88% # Number of instructions issued per FU type, per thread (Count)
system.cpu.statIssuedInstType_0::SimdFloatMatMultAcc            0      0.00%     63.88% # Number of instructions issued per FU type, per thread (Count)
system.cpu.statIssuedInstType_0::SimdFloatSqrt            0      0.00%     63.88% # Number of instructions issued per FU type, per thread (Count)
system.cpu.statIssuedInstType_0::SimdReduceAdd            0      0.00%     63.88% # Number of instructions issued per FU type, per thread (Count)
system.cpu.statIssuedInstType_0::SimdReduceAlu            0      0.00%     63.88% # Number of instructions issued per FU type, per thread (Count)
system.cpu.statIssuedInstType_0::SimdReduceCmp            0      0.00%     63.88% # Number of instructions issued per FU type, per thread (Count)
system.cpu.statIssuedInstType_0::SimdFloatReduceAdd            0      0.00%     63.88% # Number of instructions issued per FU type, per thread (Count)
system.cpu.statIssuedInstType_0::SimdFloatReduceCmp            0      0.00%     63.88% # Number of instructions issued per FU type, per thread (Count)
system.cpu.statIssuedInstType_0::SimdAes            0      0.00%     63.88% # Number of instructions issued per FU type, per thread (Count)
system.cpu.statIssuedInstType_0::SimdAesMix            0      0.00%     63.88% # Number of instructions issued per FU type, per thread (Count)
system.cpu.statIssuedInstType_0::SimdSha1Hash            0      0.00%     63.88% # Number of instructions issued per FU type, per thread (Count)
system.cpu.statIssuedInstType_0::SimdSha1Hash2            0      0.00%     63.88% # Number of instructions issued per FU type, per thread (Count)
system.cpu.statIssuedInstType_0::SimdSha256Hash            0      0.00%     63.88% # Number of instructions issued per FU type, per thread (Count)
system.cpu.statIssuedInstType_0::SimdSha256Hash2            0      0.00%     63.88% # Number of instructions issued per FU type, per thread (Count)
system.cpu.statIssuedInstType_0::SimdShaSigma2            0      0.00%     63.88% # Number of instructions issued per FU type, per thread (Count)
system.cpu.statIssuedInstType_0::SimdShaSigma3            0      0.00%     63.88% # Number of instructions issued per FU type, per thread (Count)
system.cpu.statIssuedInstType_0::SimdPredAlu            0      0.00%     63.88% # Number of instructions issued per FU type, per thread (Count)
system.cpu.statIssuedInstType_0::Matrix             0      0.00%     63.88% # Number of instructions issued per FU type, per thread (Count)
system.cpu.statIssuedInstType_0::MatrixMov            0      0.00%     63.88% # Number of instructions issued per FU type, per thread (Count)
system.cpu.statIssuedInstType_0::MatrixOP            0      0.00%     63.88% # Number of instructions issued per FU type, per thread (Count)
system.cpu.statIssuedInstType_0::MemRead   3642089023     20.39%     84.26% # Number of instructions issued per FU type, per thread (Count)
system.cpu.statIssuedInstType_0::MemWrite   2282499883     12.78%     97.04% # Number of instructions issued per FU type, per thread (Count)
system.cpu.statIssuedInstType_0::FloatMemRead    410242837      2.30%     99.33% # Number of instructions issued per FU type, per thread (Count)
system.cpu.statIssuedInstType_0::FloatMemWrite    119007915      0.67%    100.00% # Number of instructions issued per FU type, per thread (Count)
system.cpu.statIssuedInstType_0::IprAccess            0      0.00%    100.00% # Number of instructions issued per FU type, per thread (Count)
system.cpu.statIssuedInstType_0::InstPrefetch            0      0.00%    100.00% # Number of instructions issued per FU type, per thread (Count)
system.cpu.statIssuedInstType_0::SimdUnitStrideLoad            0      0.00%    100.00% # Number of instructions issued per FU type, per thread (Count)
system.cpu.statIssuedInstType_0::SimdUnitStrideStore            0      0.00%    100.00% # Number of instructions issued per FU type, per thread (Count)
system.cpu.statIssuedInstType_0::SimdUnitStrideMaskLoad            0      0.00%    100.00% # Number of instructions issued per FU type, per thread (Count)
system.cpu.statIssuedInstType_0::SimdUnitStrideMaskStore            0      0.00%    100.00% # Number of instructions issued per FU type, per thread (Count)
system.cpu.statIssuedInstType_0::SimdStridedLoad            0      0.00%    100.00% # Number of instructions issued per FU type, per thread (Count)
system.cpu.statIssuedInstType_0::SimdStridedStore            0      0.00%    100.00% # Number of instructions issued per FU type, per thread (Count)
system.cpu.statIssuedInstType_0::SimdIndexedLoad            0      0.00%    100.00% # Number of instructions issued per FU type, per thread (Count)
system.cpu.statIssuedInstType_0::SimdIndexedStore            0      0.00%    100.00% # Number of instructions issued per FU type, per thread (Count)
system.cpu.statIssuedInstType_0::SimdWholeRegisterLoad            0      0.00%    100.00% # Number of instructions issued per FU type, per thread (Count)
system.cpu.statIssuedInstType_0::SimdWholeRegisterStore            0      0.00%    100.00% # Number of instructions issued per FU type, per thread (Count)
system.cpu.statIssuedInstType_0::SimdUnitStrideFaultOnlyFirstLoad            0      0.00%    100.00% # Number of instructions issued per FU type, per thread (Count)
system.cpu.statIssuedInstType_0::SimdUnitStrideSegmentedLoad            0      0.00%    100.00% # Number of instructions issued per FU type, per thread (Count)
system.cpu.statIssuedInstType_0::SimdUnitStrideSegmentedStore            0      0.00%    100.00% # Number of instructions issued per FU type, per thread (Count)
system.cpu.statIssuedInstType_0::SimdExt            0      0.00%    100.00% # Number of instructions issued per FU type, per thread (Count)
system.cpu.statIssuedInstType_0::SimdFloatExt            0      0.00%    100.00% # Number of instructions issued per FU type, per thread (Count)
system.cpu.statIssuedInstType_0::SimdConfig            0      0.00%    100.00% # Number of instructions issued per FU type, per thread (Count)
system.cpu.statIssuedInstType_0::total    17865706675                       # Number of instructions issued per FU type, per thread (Count)
system.cpu.issueRate                         0.833733                       # Inst issue rate ((Count/Cycle))
system.cpu.fuBusy                           135380637                       # FU busy when requested (Count)
system.cpu.fuBusyRate                        0.007578                       # FU busy rate (busy events/executed inst) ((Count/Count))
system.cpu.intInstQueueReads              54464995596                       # Number of integer instruction queue reads (Count)
system.cpu.intInstQueueWrites             16482785213                       # Number of integer instruction queue writes (Count)
system.cpu.intInstQueueWakeupAccesses     16452568782                       # Number of integer instruction queue wakeup accesses (Count)
system.cpu.fpInstQueueReads                2823046232                       # Number of floating instruction queue reads (Count)
system.cpu.fpInstQueueWrites               1412876463                       # Number of floating instruction queue writes (Count)
system.cpu.fpInstQueueWakeupAccesses       1411443361                       # Number of floating instruction queue wakeup accesses (Count)
system.cpu.vecInstQueueReads                        0                       # Number of vector instruction queue reads (Count)
system.cpu.vecInstQueueWrites                       0                       # Number of vector instruction queue writes (Count)
system.cpu.vecInstQueueWakeupAccesses               0                       # Number of vector instruction queue wakeup accesses (Count)
system.cpu.intAluAccesses                 16589246086                       # Number of integer alu accesses (Count)
system.cpu.fpAluAccesses                   1411525707                       # Number of floating point alu accesses (Count)
system.cpu.vecAluAccesses                           0                       # Number of vector alu accesses (Count)
system.cpu.numSquashedInsts                   1181064                       # Number of squashed instructions skipped in execute (Count)
system.cpu.numSwp                                   0                       # Number of swp insts executed (Count)
system.cpu.timesIdled                            5041                       # Number of times that the entire CPU went into an idle state and unscheduled itself (Count)
system.cpu.idleCycles                         7342954                       # Total number of cycles that the CPU has spent unscheduled due to idling (Cycle)
system.cpu.MemDepUnit__0.insertedLoads     4053907159                       # Number of loads inserted to the mem dependence unit. (Count)
system.cpu.MemDepUnit__0.insertedStores    2402253342                       # Number of stores inserted to the mem dependence unit. (Count)
system.cpu.MemDepUnit__0.conflictingLoads   1963057322                       # Number of conflicting loads. (Count)
system.cpu.MemDepUnit__0.conflictingStores    583144202                       # Number of conflicting stores. (Count)
system.cpu.MemDepUnit__1.insertedLoads              0                       # Number of loads inserted to the mem dependence unit. (Count)
system.cpu.MemDepUnit__1.insertedStores             0                       # Number of stores inserted to the mem dependence unit. (Count)
system.cpu.MemDepUnit__1.conflictingLoads            0                       # Number of conflicting loads. (Count)
system.cpu.MemDepUnit__1.conflictingStores            0                       # Number of conflicting stores. (Count)
system.cpu.MemDepUnit__2.insertedLoads              0                       # Number of loads inserted to the mem dependence unit. (Count)
system.cpu.MemDepUnit__2.insertedStores             0                       # Number of stores inserted to the mem dependence unit. (Count)
system.cpu.MemDepUnit__2.conflictingLoads            0                       # Number of conflicting loads. (Count)
system.cpu.MemDepUnit__2.conflictingStores            0                       # Number of conflicting stores. (Count)
system.cpu.MemDepUnit__3.insertedLoads              0                       # Number of loads inserted to the mem dependence unit. (Count)
system.cpu.MemDepUnit__3.insertedStores             0                       # Number of stores inserted to the mem dependence unit. (Count)
system.cpu.MemDepUnit__3.conflictingLoads            0                       # Number of conflicting loads. (Count)
system.cpu.MemDepUnit__3.conflictingStores            0                       # Number of conflicting stores. (Count)
system.cpu.branchPred.lookups_0::NoBranch            2      0.00%      0.00% # Number of BP lookups (Count)
system.cpu.branchPred.lookups_0::Return     538624463     40.21%     40.21% # Number of BP lookups (Count)
system.cpu.branchPred.lookups_0::CallDirect    538503182     40.20%     80.41% # Number of BP lookups (Count)
system.cpu.branchPred.lookups_0::CallIndirect         2003      0.00%     80.41% # Number of BP lookups (Count)
system.cpu.branchPred.lookups_0::DirectCond    257343094     19.21%     99.62% # Number of BP lookups (Count)
system.cpu.branchPred.lookups_0::DirectUncond      3282009      0.25%     99.86% # Number of BP lookups (Count)
system.cpu.branchPred.lookups_0::IndirectCond            0      0.00%     99.86% # Number of BP lookups (Count)
system.cpu.branchPred.lookups_0::IndirectUncond      1823363      0.14%    100.00% # Number of BP lookups (Count)
system.cpu.branchPred.lookups_0::total     1339578116                       # Number of BP lookups (Count)
system.cpu.branchPred.squashes_0::NoBranch            2      0.00%      0.00% # Number of branches that got squashed (completely removed) as an earlier branch was mispredicted. (Count)
system.cpu.branchPred.squashes_0::Return      1106609     38.70%     38.70% # Number of branches that got squashed (completely removed) as an earlier branch was mispredicted. (Count)
system.cpu.branchPred.squashes_0::CallDirect       986667     34.51%     73.21% # Number of branches that got squashed (completely removed) as an earlier branch was mispredicted. (Count)
system.cpu.branchPred.squashes_0::CallIndirect          660      0.02%     73.24% # Number of branches that got squashed (completely removed) as an earlier branch was mispredicted. (Count)
system.cpu.branchPred.squashes_0::DirectCond       650235     22.74%     95.98% # Number of branches that got squashed (completely removed) as an earlier branch was mispredicted. (Count)
system.cpu.branchPred.squashes_0::DirectUncond       108195      3.78%     99.76% # Number of branches that got squashed (completely removed) as an earlier branch was mispredicted. (Count)
system.cpu.branchPred.squashes_0::IndirectCond            0      0.00%     99.76% # Number of branches that got squashed (completely removed) as an earlier branch was mispredicted. (Count)
system.cpu.branchPred.squashes_0::IndirectUncond         6727      0.24%    100.00% # Number of branches that got squashed (completely removed) as an earlier branch was mispredicted. (Count)
system.cpu.branchPred.squashes_0::total       2859095                       # Number of branches that got squashed (completely removed) as an earlier branch was mispredicted. (Count)
system.cpu.branchPred.corrected_0::NoBranch            1      0.00%      0.00% # Number of branches that got corrected but not yet commited. Branches get corrected by decode or after execute. Also a branch misprediction can be detected out-of-order. Therefore, a corrected branch might not end up beeing committed in case an even earlier branch was mispredicted (Count)
system.cpu.branchPred.corrected_0::Return          522      0.21%      0.22% # Number of branches that got corrected but not yet commited. Branches get corrected by decode or after execute. Also a branch misprediction can be detected out-of-order. Therefore, a corrected branch might not end up beeing committed in case an even earlier branch was mispredicted (Count)
system.cpu.branchPred.corrected_0::CallDirect         2283      0.94%      1.16% # Number of branches that got corrected but not yet commited. Branches get corrected by decode or after execute. Also a branch misprediction can be detected out-of-order. Therefore, a corrected branch might not end up beeing committed in case an even earlier branch was mispredicted (Count)
system.cpu.branchPred.corrected_0::CallIndirect          178      0.07%      1.23% # Number of branches that got corrected but not yet commited. Branches get corrected by decode or after execute. Also a branch misprediction can be detected out-of-order. Therefore, a corrected branch might not end up beeing committed in case an even earlier branch was mispredicted (Count)
system.cpu.branchPred.corrected_0::DirectCond       238251     98.08%     99.31% # Number of branches that got corrected but not yet commited. Branches get corrected by decode or after execute. Also a branch misprediction can be detected out-of-order. Therefore, a corrected branch might not end up beeing committed in case an even earlier branch was mispredicted (Count)
system.cpu.branchPred.corrected_0::DirectUncond         1333      0.55%     99.86% # Number of branches that got corrected but not yet commited. Branches get corrected by decode or after execute. Also a branch misprediction can be detected out-of-order. Therefore, a corrected branch might not end up beeing committed in case an even earlier branch was mispredicted (Count)
system.cpu.branchPred.corrected_0::IndirectCond            0      0.00%     99.86% # Number of branches that got corrected but not yet commited. Branches get corrected by decode or after execute. Also a branch misprediction can be detected out-of-order. Therefore, a corrected branch might not end up beeing committed in case an even earlier branch was mispredicted (Count)
system.cpu.branchPred.corrected_0::IndirectUncond          346      0.14%    100.00% # Number of branches that got corrected but not yet commited. Branches get corrected by decode or after execute. Also a branch misprediction can be detected out-of-order. Therefore, a corrected branch might not end up beeing committed in case an even earlier branch was mispredicted (Count)
system.cpu.branchPred.corrected_0::total       242914                       # Number of branches that got corrected but not yet commited. Branches get corrected by decode or after execute. Also a branch misprediction can be detected out-of-order. Therefore, a corrected branch might not end up beeing committed in case an even earlier branch was mispredicted (Count)
system.cpu.branchPred.earlyResteers_0::NoBranch            0                       # Number of branches that got redirected after decode. (Count)
system.cpu.branchPred.earlyResteers_0::Return            0                       # Number of branches that got redirected after decode. (Count)
system.cpu.branchPred.earlyResteers_0::CallDirect            0                       # Number of branches that got redirected after decode. (Count)
system.cpu.branchPred.earlyResteers_0::CallIndirect            0                       # Number of branches that got redirected after decode. (Count)
system.cpu.branchPred.earlyResteers_0::DirectCond            0                       # Number of branches that got redirected after decode. (Count)
system.cpu.branchPred.earlyResteers_0::DirectUncond            0                       # Number of branches that got redirected after decode. (Count)
system.cpu.branchPred.earlyResteers_0::IndirectCond            0                       # Number of branches that got redirected after decode. (Count)
system.cpu.branchPred.earlyResteers_0::IndirectUncond            0                       # Number of branches that got redirected after decode. (Count)
system.cpu.branchPred.earlyResteers_0::total            0                       # Number of branches that got redirected after decode. (Count)
system.cpu.branchPred.committed_0::NoBranch            0      0.00%      0.00% # Number of branches finally committed  (Count)
system.cpu.branchPred.committed_0::Return    537517854     40.21%     40.21% # Number of branches finally committed  (Count)
system.cpu.branchPred.committed_0::CallDirect    537516515     40.21%     80.42% # Number of branches finally committed  (Count)
system.cpu.branchPred.committed_0::CallIndirect         1343      0.00%     80.42% # Number of branches finally committed  (Count)
system.cpu.branchPred.committed_0::DirectCond    256692858     19.20%     99.63% # Number of branches finally committed  (Count)
system.cpu.branchPred.committed_0::DirectUncond      3173814      0.24%     99.86% # Number of branches finally committed  (Count)
system.cpu.branchPred.committed_0::IndirectCond            0      0.00%     99.86% # Number of branches finally committed  (Count)
system.cpu.branchPred.committed_0::IndirectUncond      1816636      0.14%    100.00% # Number of branches finally committed  (Count)
system.cpu.branchPred.committed_0::total   1336719020                       # Number of branches finally committed  (Count)
system.cpu.branchPred.mispredicted_0::NoBranch            0      0.00%      0.00% # Number of committed branches that were mispredicted. (Count)
system.cpu.branchPred.mispredicted_0::Return          465      0.20%      0.20% # Number of committed branches that were mispredicted. (Count)
system.cpu.branchPred.mispredicted_0::CallDirect         1540      0.65%      0.85% # Number of committed branches that were mispredicted. (Count)
system.cpu.branchPred.mispredicted_0::CallIndirect          162      0.07%      0.92% # Number of committed branches that were mispredicted. (Count)
system.cpu.branchPred.mispredicted_0::DirectCond       233147     98.59%     99.51% # Number of committed branches that were mispredicted. (Count)
system.cpu.branchPred.mispredicted_0::DirectUncond          845      0.36%     99.87% # Number of committed branches that were mispredicted. (Count)
system.cpu.branchPred.mispredicted_0::IndirectCond            0      0.00%     99.87% # Number of committed branches that were mispredicted. (Count)
system.cpu.branchPred.mispredicted_0::IndirectUncond          314      0.13%    100.00% # Number of committed branches that were mispredicted. (Count)
system.cpu.branchPred.mispredicted_0::total       236473                       # Number of committed branches that were mispredicted. (Count)
system.cpu.branchPred.targetProvider_0::NoTarget     16723821      1.25%      1.25% # The component providing the target for taken branches (Count)
system.cpu.branchPred.targetProvider_0::BTB    782406954     58.41%     59.66% # The component providing the target for taken branches (Count)
system.cpu.branchPred.targetProvider_0::RAS    538624458     40.21%     99.86% # The component providing the target for taken branches (Count)
system.cpu.branchPred.targetProvider_0::Indirect      1822883      0.14%    100.00% # The component providing the target for taken branches (Count)
system.cpu.branchPred.targetProvider_0::total   1339578116                       # The component providing the target for taken branches (Count)
system.cpu.branchPred.targetWrong_0::NoBranch        57869     23.85%     23.85% # Number of branches where the target was incorrect or not available at prediction time. (Count)
system.cpu.branchPred.targetWrong_0::Return       184180     75.92%     99.78% # Number of branches where the target was incorrect or not available at prediction time. (Count)
system.cpu.branchPred.targetWrong_0::CallDirect          522      0.22%     99.99% # Number of branches where the target was incorrect or not available at prediction time. (Count)
system.cpu.branchPred.targetWrong_0::CallIndirect           21      0.01%    100.00% # Number of branches where the target was incorrect or not available at prediction time. (Count)
system.cpu.branchPred.targetWrong_0::DirectCond            0      0.00%    100.00% # Number of branches where the target was incorrect or not available at prediction time. (Count)
system.cpu.branchPred.targetWrong_0::DirectUncond            0      0.00%    100.00% # Number of branches where the target was incorrect or not available at prediction time. (Count)
system.cpu.branchPred.targetWrong_0::IndirectCond            0      0.00%    100.00% # Number of branches where the target was incorrect or not available at prediction time. (Count)
system.cpu.branchPred.targetWrong_0::IndirectUncond            0      0.00%    100.00% # Number of branches where the target was incorrect or not available at prediction time. (Count)
system.cpu.branchPred.targetWrong_0::total       242592                       # Number of branches where the target was incorrect or not available at prediction time. (Count)
system.cpu.branchPred.condPredicted         257343096                       # Number of conditional branches predicted (Count)
system.cpu.branchPred.condPredictedTaken    240630717                       # Number of conditional branches predicted as taken (Count)
system.cpu.branchPred.condIncorrect            242914                       # Number of conditional branches incorrect (Count)
system.cpu.branchPred.predTakenBTBMiss           5020                       # Number of branches predicted taken but missed in BTB (Count)
system.cpu.branchPred.NotTakenMispredicted        59038                       # Number branches predicted 'not taken' but turned out to be taken (Count)
system.cpu.branchPred.TakenMispredicted        183876                       # Number branches predicted taken but are actually not taken (Count)
system.cpu.branchPred.BTBLookups           1339578116                       # Number of BTB lookups (Count)
system.cpu.branchPred.BTBUpdates                57991                       # Number of BTB updates (Count)
system.cpu.branchPred.BTBHits               788837219                       # Number of BTB hits (Count)
system.cpu.branchPred.BTBHitRatio            0.588870                       # BTB Hit Ratio (Ratio)
system.cpu.branchPred.BTBMispredicted            5993                       # Number BTB mispredictions. No target found or target wrong (Count)
system.cpu.branchPred.indirectLookups         1825366                       # Number of indirect predictor lookups. (Count)
system.cpu.branchPred.indirectHits            1822883                       # Number of indirect target hits. (Count)
system.cpu.branchPred.indirectMisses             2483                       # Number of indirect misses. (Count)
system.cpu.branchPred.indirectMispredicted            0                       # Number of mispredicted indirect branches. (Count)
system.cpu.branchPred.btb.lookups::NoBranch            2      0.00%      0.00% # Number of BTB lookups (Count)
system.cpu.branchPred.btb.lookups::Return    538624463     40.21%     40.21% # Number of BTB lookups (Count)
system.cpu.branchPred.btb.lookups::CallDirect    538503182     40.20%     80.41% # Number of BTB lookups (Count)
system.cpu.branchPred.btb.lookups::CallIndirect         2003      0.00%     80.41% # Number of BTB lookups (Count)
system.cpu.branchPred.btb.lookups::DirectCond    257343094     19.21%     99.62% # Number of BTB lookups (Count)
system.cpu.branchPred.btb.lookups::DirectUncond      3282009      0.25%     99.86% # Number of BTB lookups (Count)
system.cpu.branchPred.btb.lookups::IndirectCond            0      0.00%     99.86% # Number of BTB lookups (Count)
system.cpu.branchPred.btb.lookups::IndirectUncond      1823363      0.14%    100.00% # Number of BTB lookups (Count)
system.cpu.branchPred.btb.lookups::total   1339578116                       # Number of BTB lookups (Count)
system.cpu.branchPred.btb.misses::NoBranch            2      0.00%      0.00% # Number of BTB misses (Count)
system.cpu.branchPred.btb.misses::Return    538624411     97.80%     97.80% # Number of BTB misses (Count)
system.cpu.branchPred.btb.misses::CallDirect         2907      0.00%     97.80% # Number of BTB misses (Count)
system.cpu.branchPred.btb.misses::CallIndirect         1867      0.00%     97.80% # Number of BTB misses (Count)
system.cpu.branchPred.btb.misses::DirectCond     10286575      1.87%     99.67% # Number of BTB misses (Count)
system.cpu.branchPred.btb.misses::DirectUncond         1772      0.00%     99.67% # Number of BTB misses (Count)
system.cpu.branchPred.btb.misses::IndirectCond            0      0.00%     99.67% # Number of BTB misses (Count)
system.cpu.branchPred.btb.misses::IndirectUncond      1823363      0.33%    100.00% # Number of BTB misses (Count)
system.cpu.branchPred.btb.misses::total     550740897                       # Number of BTB misses (Count)
system.cpu.branchPred.btb.updates::NoBranch            0      0.00%      0.00% # Number of BTB updates (Count)
system.cpu.branchPred.btb.updates::Return            0      0.00%      0.00% # Number of BTB updates (Count)
system.cpu.branchPred.btb.updates::CallDirect         2283      3.94%      3.94% # Number of BTB updates (Count)
system.cpu.branchPred.btb.updates::CallIndirect            0      0.00%      3.94% # Number of BTB updates (Count)
system.cpu.branchPred.btb.updates::DirectCond        54375     93.76%     97.70% # Number of BTB updates (Count)
system.cpu.branchPred.btb.updates::DirectUncond         1333      2.30%    100.00% # Number of BTB updates (Count)
system.cpu.branchPred.btb.updates::IndirectCond            0      0.00%    100.00% # Number of BTB updates (Count)
system.cpu.branchPred.btb.updates::IndirectUncond            0      0.00%    100.00% # Number of BTB updates (Count)
system.cpu.branchPred.btb.updates::total        57991                       # Number of BTB updates (Count)
system.cpu.branchPred.btb.mispredict::NoBranch            0      0.00%      0.00% # Number of BTB mispredictions. No target found or target wrong. (Count)
system.cpu.branchPred.btb.mispredict::Return            0      0.00%      0.00% # Number of BTB mispredictions. No target found or target wrong. (Count)
system.cpu.branchPred.btb.mispredict::CallDirect         2283      3.94%      3.94% # Number of BTB mispredictions. No target found or target wrong. (Count)
system.cpu.branchPred.btb.mispredict::CallIndirect            0      0.00%      3.94% # Number of BTB mispredictions. No target found or target wrong. (Count)
system.cpu.branchPred.btb.mispredict::DirectCond        54375     93.76%     97.70% # Number of BTB mispredictions. No target found or target wrong. (Count)
system.cpu.branchPred.btb.mispredict::DirectUncond         1333      2.30%    100.00% # Number of BTB mispredictions. No target found or target wrong. (Count)
system.cpu.branchPred.btb.mispredict::IndirectCond            0      0.00%    100.00% # Number of BTB mispredictions. No target found or target wrong. (Count)
system.cpu.branchPred.btb.mispredict::IndirectUncond            0      0.00%    100.00% # Number of BTB mispredictions. No target found or target wrong. (Count)
system.cpu.branchPred.btb.mispredict::total        57991                       # Number of BTB mispredictions. No target found or target wrong. (Count)
system.cpu.branchPred.btb.power_state.pwrStateResidencyTicks::UNDEFINED 6707143481086                       # Cumulative time (in ticks) in various power states (Tick)
system.cpu.branchPred.indirectBranchPred.lookups      1825366                       # Number of lookups (Count)
system.cpu.branchPred.indirectBranchPred.hits      1822883                       # Number of hits of a tag (Count)
system.cpu.branchPred.indirectBranchPred.misses         2483                       # Number of misses (Count)
system.cpu.branchPred.indirectBranchPred.targetRecords          524                       # Number of targets that where recorded/installed in the cache (Count)
system.cpu.branchPred.indirectBranchPred.indirectRecords      1825890                       # Number of indirect branches/calls recorded in the indirect hist (Count)
system.cpu.branchPred.indirectBranchPred.speculativeOverflows            0                       # Number of times more than the allowed capacity for speculative branches/calls where in flight and destroy the path history (Count)
system.cpu.branchPred.ras.pushes            539611794                       # Number of times a PC was pushed onto the RAS (Count)
system.cpu.branchPred.ras.pops              539611790                       # Number of times a PC was poped from the RAS (Count)
system.cpu.branchPred.ras.squashes            2093936                       # Number of times the stack operation was squashed due to wrong speculation. (Count)
system.cpu.branchPred.ras.used              537517854                       # Number of times the RAS is the provider (Count)
system.cpu.branchPred.ras.correct           537517389                       # Number of times the RAS is the provider and the prediction is correct (Count)
system.cpu.branchPred.ras.incorrect               465                       # Number of times the RAS is the provider and the prediction is wrong (Count)
system.cpu.commit.commitSquashedInsts        22816618                       # The number of squashed insts skipped by commit (Count)
system.cpu.commit.commitNonSpecStalls            3621                       # The number of times commit has been forced to stall to communicate backwards (Count)
system.cpu.commit.branchMispredicts            240488                       # The number of times a branch was mispredicted (Count)
system.cpu.commit.numCommittedDist::samples  21418060035                       # Number of insts commited each cycle (Count)
system.cpu.commit.numCommittedDist::mean     0.833353                       # Number of insts commited each cycle (Count)
system.cpu.commit.numCommittedDist::stdev     2.148411                       # Number of insts commited each cycle (Count)
system.cpu.commit.numCommittedDist::underflows            0      0.00%      0.00% # Number of insts commited each cycle (Count)
system.cpu.commit.numCommittedDist::0     17234420491     80.47%     80.47% # Number of insts commited each cycle (Count)
system.cpu.commit.numCommittedDist::1      1345198369      6.28%     86.75% # Number of insts commited each cycle (Count)
system.cpu.commit.numCommittedDist::2       367305125      1.71%     88.46% # Number of insts commited each cycle (Count)
system.cpu.commit.numCommittedDist::3       524855901      2.45%     90.91% # Number of insts commited each cycle (Count)
system.cpu.commit.numCommittedDist::4        80843190      0.38%     91.29% # Number of insts commited each cycle (Count)
system.cpu.commit.numCommittedDist::5       174929780      0.82%     92.11% # Number of insts commited each cycle (Count)
system.cpu.commit.numCommittedDist::6       125311163      0.59%     92.69% # Number of insts commited each cycle (Count)
system.cpu.commit.numCommittedDist::7       277036433      1.29%     93.99% # Number of insts commited each cycle (Count)
system.cpu.commit.numCommittedDist::8      1288159583      6.01%    100.00% # Number of insts commited each cycle (Count)
system.cpu.commit.numCommittedDist::overflows            0      0.00%    100.00% # Number of insts commited each cycle (Count)
system.cpu.commit.numCommittedDist::min_value            0                       # Number of insts commited each cycle (Count)
system.cpu.commit.numCommittedDist::max_value            8                       # Number of insts commited each cycle (Count)
system.cpu.commit.numCommittedDist::total  21418060035                       # Number of insts commited each cycle (Count)
system.cpu.commit.amos                              0                       # Number of atomic instructions committed (Count)
system.cpu.commit.membars                        2270                       # Number of memory barriers committed (Count)
system.cpu.commit.functionCalls             537517858                       # Number of function calls committed. (Count)
system.cpu.commit.committedInstType_0::No_OpClass       311379      0.00%      0.00% # Class of committed instruction (Count)
system.cpu.commit.committedInstType_0::IntAlu  10457500428     58.59%     58.59% # Class of committed instruction (Count)
system.cpu.commit.committedInstType_0::IntMult     60954427      0.34%     58.93% # Class of committed instruction (Count)
system.cpu.commit.committedInstType_0::IntDiv         3677      0.00%     58.93% # Class of committed instruction (Count)
system.cpu.commit.committedInstType_0::FloatAdd    351941438      1.97%     60.90% # Class of committed instruction (Count)
system.cpu.commit.committedInstType_0::FloatCmp            0      0.00%     60.90% # Class of committed instruction (Count)
system.cpu.commit.committedInstType_0::FloatCvt          384      0.00%     60.90% # Class of committed instruction (Count)
system.cpu.commit.committedInstType_0::FloatMult            0      0.00%     60.90% # Class of committed instruction (Count)
system.cpu.commit.committedInstType_0::FloatMultAcc            0      0.00%     60.90% # Class of committed instruction (Count)
system.cpu.commit.committedInstType_0::FloatDiv            0      0.00%     60.90% # Class of committed instruction (Count)
system.cpu.commit.committedInstType_0::FloatMisc            0      0.00%     60.90% # Class of committed instruction (Count)
system.cpu.commit.committedInstType_0::FloatSqrt            0      0.00%     60.90% # Class of committed instruction (Count)
system.cpu.commit.committedInstType_0::SimdAdd           20      0.00%     60.90% # Class of committed instruction (Count)
system.cpu.commit.committedInstType_0::SimdAddAcc            0      0.00%     60.90% # Class of committed instruction (Count)
system.cpu.commit.committedInstType_0::SimdAlu    118756860      0.67%     61.57% # Class of committed instruction (Count)
system.cpu.commit.committedInstType_0::SimdCmp            0      0.00%     61.57% # Class of committed instruction (Count)
system.cpu.commit.committedInstType_0::SimdCvt          256      0.00%     61.57% # Class of committed instruction (Count)
system.cpu.commit.committedInstType_0::SimdMisc    117389063      0.66%     62.23% # Class of committed instruction (Count)
system.cpu.commit.committedInstType_0::SimdMult            0      0.00%     62.23% # Class of committed instruction (Count)
system.cpu.commit.committedInstType_0::SimdMultAcc            0      0.00%     62.23% # Class of committed instruction (Count)
system.cpu.commit.committedInstType_0::SimdMatMultAcc            0      0.00%     62.23% # Class of committed instruction (Count)
system.cpu.commit.committedInstType_0::SimdShift           30      0.00%     62.23% # Class of committed instruction (Count)
system.cpu.commit.committedInstType_0::SimdShiftAcc            0      0.00%     62.23% # Class of committed instruction (Count)
system.cpu.commit.committedInstType_0::SimdDiv            0      0.00%     62.23% # Class of committed instruction (Count)
system.cpu.commit.committedInstType_0::SimdSqrt            0      0.00%     62.23% # Class of committed instruction (Count)
system.cpu.commit.committedInstType_0::SimdFloatAdd     59208960      0.33%     62.56% # Class of committed instruction (Count)
system.cpu.commit.committedInstType_0::SimdFloatAlu            0      0.00%     62.56% # Class of committed instruction (Count)
system.cpu.commit.committedInstType_0::SimdFloatCmp            0      0.00%     62.56% # Class of committed instruction (Count)
system.cpu.commit.committedInstType_0::SimdFloatCvt    175322496      0.98%     63.54% # Class of committed instruction (Count)
system.cpu.commit.committedInstType_0::SimdFloatDiv      1236864      0.01%     63.55% # Class of committed instruction (Count)
system.cpu.commit.committedInstType_0::SimdFloatMisc            0      0.00%     63.55% # Class of committed instruction (Count)
system.cpu.commit.committedInstType_0::SimdFloatMult     57972096      0.32%     63.87% # Class of committed instruction (Count)
system.cpu.commit.committedInstType_0::SimdFloatMultAcc            0      0.00%     63.87% # Class of committed instruction (Count)
system.cpu.commit.committedInstType_0::SimdFloatMatMultAcc            0      0.00%     63.87% # Class of committed instruction (Count)
system.cpu.commit.committedInstType_0::SimdFloatSqrt            0      0.00%     63.87% # Class of committed instruction (Count)
system.cpu.commit.committedInstType_0::SimdReduceAdd            0      0.00%     63.87% # Class of committed instruction (Count)
system.cpu.commit.committedInstType_0::SimdReduceAlu            0      0.00%     63.87% # Class of committed instruction (Count)
system.cpu.commit.committedInstType_0::SimdReduceCmp            0      0.00%     63.87% # Class of committed instruction (Count)
system.cpu.commit.committedInstType_0::SimdFloatReduceAdd            0      0.00%     63.87% # Class of committed instruction (Count)
system.cpu.commit.committedInstType_0::SimdFloatReduceCmp            0      0.00%     63.87% # Class of committed instruction (Count)
system.cpu.commit.committedInstType_0::SimdAes            0      0.00%     63.87% # Class of committed instruction (Count)
system.cpu.commit.committedInstType_0::SimdAesMix            0      0.00%     63.87% # Class of committed instruction (Count)
system.cpu.commit.committedInstType_0::SimdSha1Hash            0      0.00%     63.87% # Class of committed instruction (Count)
system.cpu.commit.committedInstType_0::SimdSha1Hash2            0      0.00%     63.87% # Class of committed instruction (Count)
system.cpu.commit.committedInstType_0::SimdSha256Hash            0      0.00%     63.87% # Class of committed instruction (Count)
system.cpu.commit.committedInstType_0::SimdSha256Hash2            0      0.00%     63.87% # Class of committed instruction (Count)
system.cpu.commit.committedInstType_0::SimdShaSigma2            0      0.00%     63.87% # Class of committed instruction (Count)
system.cpu.commit.committedInstType_0::SimdShaSigma3            0      0.00%     63.87% # Class of committed instruction (Count)
system.cpu.commit.committedInstType_0::SimdPredAlu            0      0.00%     63.87% # Class of committed instruction (Count)
system.cpu.commit.committedInstType_0::Matrix            0      0.00%     63.87% # Class of committed instruction (Count)
system.cpu.commit.committedInstType_0::MatrixMov            0      0.00%     63.87% # Class of committed instruction (Count)
system.cpu.commit.committedInstType_0::MatrixOP            0      0.00%     63.87% # Class of committed instruction (Count)
system.cpu.commit.committedInstType_0::MemRead   3638561542     20.39%     84.26% # Class of committed instruction (Count)
system.cpu.commit.committedInstType_0::MemWrite   2280676182     12.78%     97.04% # Class of committed instruction (Count)
system.cpu.commit.committedInstType_0::FloatMemRead    409971021      2.30%     99.33% # Class of committed instruction (Count)
system.cpu.commit.committedInstType_0::FloatMemWrite    118989532      0.67%    100.00% # Class of committed instruction (Count)
system.cpu.commit.committedInstType_0::IprAccess            0      0.00%    100.00% # Class of committed instruction (Count)
system.cpu.commit.committedInstType_0::InstPrefetch            0      0.00%    100.00% # Class of committed instruction (Count)
system.cpu.commit.committedInstType_0::SimdUnitStrideLoad            0      0.00%    100.00% # Class of committed instruction (Count)
system.cpu.commit.committedInstType_0::SimdUnitStrideStore            0      0.00%    100.00% # Class of committed instruction (Count)
system.cpu.commit.committedInstType_0::SimdUnitStrideMaskLoad            0      0.00%    100.00% # Class of committed instruction (Count)
system.cpu.commit.committedInstType_0::SimdUnitStrideMaskStore            0      0.00%    100.00% # Class of committed instruction (Count)
system.cpu.commit.committedInstType_0::SimdStridedLoad            0      0.00%    100.00% # Class of committed instruction (Count)
system.cpu.commit.committedInstType_0::SimdStridedStore            0      0.00%    100.00% # Class of committed instruction (Count)
system.cpu.commit.committedInstType_0::SimdIndexedLoad            0      0.00%    100.00% # Class of committed instruction (Count)
system.cpu.commit.committedInstType_0::SimdIndexedStore            0      0.00%    100.00% # Class of committed instruction (Count)
system.cpu.commit.committedInstType_0::SimdWholeRegisterLoad            0      0.00%    100.00% # Class of committed instruction (Count)
system.cpu.commit.committedInstType_0::SimdWholeRegisterStore            0      0.00%    100.00% # Class of committed instruction (Count)
system.cpu.commit.committedInstType_0::SimdUnitStrideFaultOnlyFirstLoad            0      0.00%    100.00% # Class of committed instruction (Count)
system.cpu.commit.committedInstType_0::SimdUnitStrideSegmentedLoad            0      0.00%    100.00% # Class of committed instruction (Count)
system.cpu.commit.committedInstType_0::SimdUnitStrideSegmentedStore            0      0.00%    100.00% # Class of committed instruction (Count)
system.cpu.commit.committedInstType_0::SimdExt            0      0.00%    100.00% # Class of committed instruction (Count)
system.cpu.commit.committedInstType_0::SimdFloatExt            0      0.00%    100.00% # Class of committed instruction (Count)
system.cpu.commit.committedInstType_0::SimdConfig            0      0.00%    100.00% # Class of committed instruction (Count)
system.cpu.commit.committedInstType_0::total  17848796655                       # Class of committed instruction (Count)
system.cpu.commit.commitEligibleSamples    1288159583                       # number cycles where commit BW limit reached (Cycle)
system.cpu.commitStats0.numInsts          10716825422                       # Number of instructions committed (thread level) (Count)
system.cpu.commitStats0.numOps            17848796655                       # Number of ops (including micro ops) committed (thread level) (Count)
system.cpu.commitStats0.numInstsNotNOP    10716825422                       # Number of instructions committed excluding NOPs or prefetches (Count)
system.cpu.commitStats0.numOpsNotNOP      17848796655                       # Number of Ops (including micro ops) Simulated (Count)
system.cpu.commitStats0.cpi                  1.999526                       # CPI: cycles per instruction (thread level) ((Cycle/Count))
system.cpu.commitStats0.ipc                  0.500118                       # IPC: instructions per cycle (thread level) ((Count/Cycle))
system.cpu.commitStats0.numMemRefs         6448198277                       # Number of memory references committed (Count)
system.cpu.commitStats0.numFpInsts         1410789127                       # Number of float instructions (Count)
system.cpu.commitStats0.numIntInsts       17080482642                       # Number of integer instructions (Count)
system.cpu.commitStats0.numLoadInsts       4048532563                       # Number of load instructions (Count)
system.cpu.commitStats0.numStoreInsts      2399665714                       # Number of store instructions (Count)
system.cpu.commitStats0.numVecInsts                 0                       # Number of vector instructions (Count)
system.cpu.commitStats0.committedInstType::No_OpClass       311379      0.00%      0.00% # Class of committed instruction. (Count)
system.cpu.commitStats0.committedInstType::IntAlu  10457500428     58.59%     58.59% # Class of committed instruction. (Count)
system.cpu.commitStats0.committedInstType::IntMult     60954427      0.34%     58.93% # Class of committed instruction. (Count)
system.cpu.commitStats0.committedInstType::IntDiv         3677      0.00%     58.93% # Class of committed instruction. (Count)
system.cpu.commitStats0.committedInstType::FloatAdd    351941438      1.97%     60.90% # Class of committed instruction. (Count)
system.cpu.commitStats0.committedInstType::FloatCmp            0      0.00%     60.90% # Class of committed instruction. (Count)
system.cpu.commitStats0.committedInstType::FloatCvt          384      0.00%     60.90% # Class of committed instruction. (Count)
system.cpu.commitStats0.committedInstType::FloatMult            0      0.00%     60.90% # Class of committed instruction. (Count)
system.cpu.commitStats0.committedInstType::FloatMultAcc            0      0.00%     60.90% # Class of committed instruction. (Count)
system.cpu.commitStats0.committedInstType::FloatDiv            0      0.00%     60.90% # Class of committed instruction. (Count)
system.cpu.commitStats0.committedInstType::FloatMisc            0      0.00%     60.90% # Class of committed instruction. (Count)
system.cpu.commitStats0.committedInstType::FloatSqrt            0      0.00%     60.90% # Class of committed instruction. (Count)
system.cpu.commitStats0.committedInstType::SimdAdd           20      0.00%     60.90% # Class of committed instruction. (Count)
system.cpu.commitStats0.committedInstType::SimdAddAcc            0      0.00%     60.90% # Class of committed instruction. (Count)
system.cpu.commitStats0.committedInstType::SimdAlu    118756860      0.67%     61.57% # Class of committed instruction. (Count)
system.cpu.commitStats0.committedInstType::SimdCmp            0      0.00%     61.57% # Class of committed instruction. (Count)
system.cpu.commitStats0.committedInstType::SimdCvt          256      0.00%     61.57% # Class of committed instruction. (Count)
system.cpu.commitStats0.committedInstType::SimdMisc    117389063      0.66%     62.23% # Class of committed instruction. (Count)
system.cpu.commitStats0.committedInstType::SimdMult            0      0.00%     62.23% # Class of committed instruction. (Count)
system.cpu.commitStats0.committedInstType::SimdMultAcc            0      0.00%     62.23% # Class of committed instruction. (Count)
system.cpu.commitStats0.committedInstType::SimdMatMultAcc            0      0.00%     62.23% # Class of committed instruction. (Count)
system.cpu.commitStats0.committedInstType::SimdShift           30      0.00%     62.23% # Class of committed instruction. (Count)
system.cpu.commitStats0.committedInstType::SimdShiftAcc            0      0.00%     62.23% # Class of committed instruction. (Count)
system.cpu.commitStats0.committedInstType::SimdDiv            0      0.00%     62.23% # Class of committed instruction. (Count)
system.cpu.commitStats0.committedInstType::SimdSqrt            0      0.00%     62.23% # Class of committed instruction. (Count)
system.cpu.commitStats0.committedInstType::SimdFloatAdd     59208960      0.33%     62.56% # Class of committed instruction. (Count)
system.cpu.commitStats0.committedInstType::SimdFloatAlu            0      0.00%     62.56% # Class of committed instruction. (Count)
system.cpu.commitStats0.committedInstType::SimdFloatCmp            0      0.00%     62.56% # Class of committed instruction. (Count)
system.cpu.commitStats0.committedInstType::SimdFloatCvt    175322496      0.98%     63.54% # Class of committed instruction. (Count)
system.cpu.commitStats0.committedInstType::SimdFloatDiv      1236864      0.01%     63.55% # Class of committed instruction. (Count)
system.cpu.commitStats0.committedInstType::SimdFloatMisc            0      0.00%     63.55% # Class of committed instruction. (Count)
system.cpu.commitStats0.committedInstType::SimdFloatMult     57972096      0.32%     63.87% # Class of committed instruction. (Count)
system.cpu.commitStats0.committedInstType::SimdFloatMultAcc            0      0.00%     63.87% # Class of committed instruction. (Count)
system.cpu.commitStats0.committedInstType::SimdFloatMatMultAcc            0      0.00%     63.87% # Class of committed instruction. (Count)
system.cpu.commitStats0.committedInstType::SimdFloatSqrt            0      0.00%     63.87% # Class of committed instruction. (Count)
system.cpu.commitStats0.committedInstType::SimdReduceAdd            0      0.00%     63.87% # Class of committed instruction. (Count)
system.cpu.commitStats0.committedInstType::SimdReduceAlu            0      0.00%     63.87% # Class of committed instruction. (Count)
system.cpu.commitStats0.committedInstType::SimdReduceCmp            0      0.00%     63.87% # Class of committed instruction. (Count)
system.cpu.commitStats0.committedInstType::SimdFloatReduceAdd            0      0.00%     63.87% # Class of committed instruction. (Count)
system.cpu.commitStats0.committedInstType::SimdFloatReduceCmp            0      0.00%     63.87% # Class of committed instruction. (Count)
system.cpu.commitStats0.committedInstType::SimdAes            0      0.00%     63.87% # Class of committed instruction. (Count)
system.cpu.commitStats0.committedInstType::SimdAesMix            0      0.00%     63.87% # Class of committed instruction. (Count)
system.cpu.commitStats0.committedInstType::SimdSha1Hash            0      0.00%     63.87% # Class of committed instruction. (Count)
system.cpu.commitStats0.committedInstType::SimdSha1Hash2            0      0.00%     63.87% # Class of committed instruction. (Count)
system.cpu.commitStats0.committedInstType::SimdSha256Hash            0      0.00%     63.87% # Class of committed instruction. (Count)
system.cpu.commitStats0.committedInstType::SimdSha256Hash2            0      0.00%     63.87% # Class of committed instruction. (Count)
system.cpu.commitStats0.committedInstType::SimdShaSigma2            0      0.00%     63.87% # Class of committed instruction. (Count)
system.cpu.commitStats0.committedInstType::SimdShaSigma3            0      0.00%     63.87% # Class of committed instruction. (Count)
system.cpu.commitStats0.committedInstType::SimdPredAlu            0      0.00%     63.87% # Class of committed instruction. (Count)
system.cpu.commitStats0.committedInstType::Matrix            0      0.00%     63.87% # Class of committed instruction. (Count)
system.cpu.commitStats0.committedInstType::MatrixMov            0      0.00%     63.87% # Class of committed instruction. (Count)
system.cpu.commitStats0.committedInstType::MatrixOP            0      0.00%     63.87% # Class of committed instruction. (Count)
system.cpu.commitStats0.committedInstType::MemRead   3638561542     20.39%     84.26% # Class of committed instruction. (Count)
system.cpu.commitStats0.committedInstType::MemWrite   2280676182     12.78%     97.04% # Class of committed instruction. (Count)
system.cpu.commitStats0.committedInstType::FloatMemRead    409971021      2.30%     99.33% # Class of committed instruction. (Count)
system.cpu.commitStats0.committedInstType::FloatMemWrite    118989532      0.67%    100.00% # Class of committed instruction. (Count)
system.cpu.commitStats0.committedInstType::IprAccess            0      0.00%    100.00% # Class of committed instruction. (Count)
system.cpu.commitStats0.committedInstType::InstPrefetch            0      0.00%    100.00% # Class of committed instruction. (Count)
system.cpu.commitStats0.committedInstType::SimdUnitStrideLoad            0      0.00%    100.00% # Class of committed instruction. (Count)
system.cpu.commitStats0.committedInstType::SimdUnitStrideStore            0      0.00%    100.00% # Class of committed instruction. (Count)
system.cpu.commitStats0.committedInstType::SimdUnitStrideMaskLoad            0      0.00%    100.00% # Class of committed instruction. (Count)
system.cpu.commitStats0.committedInstType::SimdUnitStrideMaskStore            0      0.00%    100.00% # Class of committed instruction. (Count)
system.cpu.commitStats0.committedInstType::SimdStridedLoad            0      0.00%    100.00% # Class of committed instruction. (Count)
system.cpu.commitStats0.committedInstType::SimdStridedStore            0      0.00%    100.00% # Class of committed instruction. (Count)
system.cpu.commitStats0.committedInstType::SimdIndexedLoad            0      0.00%    100.00% # Class of committed instruction. (Count)
system.cpu.commitStats0.committedInstType::SimdIndexedStore            0      0.00%    100.00% # Class of committed instruction. (Count)
system.cpu.commitStats0.committedInstType::SimdWholeRegisterLoad            0      0.00%    100.00% # Class of committed instruction. (Count)
system.cpu.commitStats0.committedInstType::SimdWholeRegisterStore            0      0.00%    100.00% # Class of committed instruction. (Count)
system.cpu.commitStats0.committedInstType::SimdUnitStrideFaultOnlyFirstLoad            0      0.00%    100.00% # Class of committed instruction. (Count)
system.cpu.commitStats0.committedInstType::SimdUnitStrideSegmentedLoad            0      0.00%    100.00% # Class of committed instruction. (Count)
system.cpu.commitStats0.committedInstType::SimdUnitStrideSegmentedStore            0      0.00%    100.00% # Class of committed instruction. (Count)
system.cpu.commitStats0.committedInstType::SimdExt            0      0.00%    100.00% # Class of committed instruction. (Count)
system.cpu.commitStats0.committedInstType::SimdFloatExt            0      0.00%    100.00% # Class of committed instruction. (Count)
system.cpu.commitStats0.committedInstType::SimdConfig            0      0.00%    100.00% # Class of committed instruction. (Count)
system.cpu.commitStats0.committedInstType::total  17848796655                       # Class of committed instruction. (Count)
system.cpu.commitStats0.committedControl::IsControl   1336719020                       # Class of control type instructions committed (Count)
system.cpu.commitStats0.committedControl::IsDirectControl    797383187                       # Class of control type instructions committed (Count)
system.cpu.commitStats0.committedControl::IsIndirectControl    539335833                       # Class of control type instructions committed (Count)
system.cpu.commitStats0.committedControl::IsCondControl    256692858                       # Class of control type instructions committed (Count)
system.cpu.commitStats0.committedControl::IsUncondControl   1080026162                       # Class of control type instructions committed (Count)
system.cpu.commitStats0.committedControl::IsCall    537517858                       # Class of control type instructions committed (Count)
system.cpu.commitStats0.committedControl::IsReturn    537517854                       # Class of control type instructions committed (Count)
system.cpu.dcache.demandHits::cpu.data     3695714676                       # number of demand (read+write) hits (Count)
system.cpu.dcache.demandHits::total        3695714676                       # number of demand (read+write) hits (Count)
system.cpu.dcache.overallHits::cpu.data    3695714676                       # number of overall hits (Count)
system.cpu.dcache.overallHits::total       3695714676                       # number of overall hits (Count)
system.cpu.dcache.demandMisses::cpu.data     91124808                       # number of demand (read+write) misses (Count)
system.cpu.dcache.demandMisses::total        91124808                       # number of demand (read+write) misses (Count)
system.cpu.dcache.overallMisses::cpu.data     91124808                       # number of overall misses (Count)
system.cpu.dcache.overallMisses::total       91124808                       # number of overall misses (Count)
system.cpu.dcache.demandMissLatency::cpu.data 5126945265687                       # number of demand (read+write) miss ticks (Tick)
system.cpu.dcache.demandMissLatency::total 5126945265687                       # number of demand (read+write) miss ticks (Tick)
system.cpu.dcache.overallMissLatency::cpu.data 5126945265687                       # number of overall miss ticks (Tick)
system.cpu.dcache.overallMissLatency::total 5126945265687                       # number of overall miss ticks (Tick)
system.cpu.dcache.demandAccesses::cpu.data   3786839484                       # number of demand (read+write) accesses (Count)
system.cpu.dcache.demandAccesses::total    3786839484                       # number of demand (read+write) accesses (Count)
system.cpu.dcache.overallAccesses::cpu.data   3786839484                       # number of overall (read+write) accesses (Count)
system.cpu.dcache.overallAccesses::total   3786839484                       # number of overall (read+write) accesses (Count)
system.cpu.dcache.demandMissRate::cpu.data     0.024064                       # miss rate for demand accesses (Ratio)
system.cpu.dcache.demandMissRate::total      0.024064                       # miss rate for demand accesses (Ratio)
system.cpu.dcache.overallMissRate::cpu.data     0.024064                       # miss rate for overall accesses (Ratio)
system.cpu.dcache.overallMissRate::total     0.024064                       # miss rate for overall accesses (Ratio)
system.cpu.dcache.demandAvgMissLatency::cpu.data 56262.892380                       # average overall miss latency in ticks ((Tick/Count))
system.cpu.dcache.demandAvgMissLatency::total 56262.892380                       # average overall miss latency in ticks ((Tick/Count))
system.cpu.dcache.overallAvgMissLatency::cpu.data 56262.892380                       # average overall miss latency ((Tick/Count))
system.cpu.dcache.overallAvgMissLatency::total 56262.892380                       # average overall miss latency ((Tick/Count))
system.cpu.dcache.blockedCycles::no_mshrs      1712363                       # number of cycles access was blocked (Cycle)
system.cpu.dcache.blockedCycles::no_targets        41008                       # number of cycles access was blocked (Cycle)
system.cpu.dcache.blockedCauses::no_mshrs         5426                       # number of times access was blocked (Count)
system.cpu.dcache.blockedCauses::no_targets           39                       # number of times access was blocked (Count)
system.cpu.dcache.avgBlocked::no_mshrs     315.584777                       # average number of cycles each access was blocked ((Cycle/Count))
system.cpu.dcache.avgBlocked::no_targets  1051.487179                       # average number of cycles each access was blocked ((Cycle/Count))
system.cpu.dcache.writebacks::writebacks     10544293                       # number of writebacks (Count)
system.cpu.dcache.writebacks::total          10544293                       # number of writebacks (Count)
system.cpu.dcache.demandMshrHits::cpu.data       398146                       # number of demand (read+write) MSHR hits (Count)
system.cpu.dcache.demandMshrHits::total        398146                       # number of demand (read+write) MSHR hits (Count)
system.cpu.dcache.overallMshrHits::cpu.data       398146                       # number of overall MSHR hits (Count)
[...]
system.l2.ReadSharedReq.accesses::total      88268137                       # number of ReadSharedReq accesses(hits+misses) (Count)
system.l2.ReadSharedReq.missRate::cpu.data     0.093525                       # miss rate for ReadSharedReq accesses (Ratio)
system.l2.ReadSharedReq.missRate::total      0.093525                       # miss rate for ReadSharedReq accesses (Ratio)
system.l2.ReadSharedReq.avgMissLatency::cpu.data 425699.151636                       # average ReadSharedReq miss latency ((Tick/Count))
system.l2.ReadSharedReq.avgMissLatency::total 425699.151636                       # average ReadSharedReq miss latency ((Tick/Count))
system.l2.ReadSharedReq.mshrMisses::cpu.data      8255254                       # number of ReadSharedReq MSHR misses (Count)
system.l2.ReadSharedReq.mshrMisses::total      8255254                       # number of ReadSharedReq MSHR misses (Count)
system.l2.ReadSharedReq.mshrMissLatency::cpu.data 3461294024951                       # number of ReadSharedReq MSHR miss ticks (Tick)
system.l2.ReadSharedReq.mshrMissLatency::total 3461294024951                       # number of ReadSharedReq MSHR miss ticks (Tick)
system.l2.ReadSharedReq.mshrMissRate::cpu.data     0.093525                       # mshr miss rate for ReadSharedReq accesses (Ratio)
system.l2.ReadSharedReq.mshrMissRate::total     0.093525                       # mshr miss rate for ReadSharedReq accesses (Ratio)
system.l2.ReadSharedReq.avgMshrMissLatency::cpu.data 419283.770669                       # average ReadSharedReq mshr miss latency ((Tick/Count))
system.l2.ReadSharedReq.avgMshrMissLatency::total 419283.770669                       # average ReadSharedReq mshr miss latency ((Tick/Count))
system.l2.UpgradeReq.hits::cpu.data                14                       # number of UpgradeReq hits (Count)
system.l2.UpgradeReq.hits::total                   14                       # number of UpgradeReq hits (Count)
system.l2.UpgradeReq.accesses::cpu.data            14                       # number of UpgradeReq accesses(hits+misses) (Count)
system.l2.UpgradeReq.accesses::total               14                       # number of UpgradeReq accesses(hits+misses) (Count)
system.l2.WritebackClean.hits::writebacks       459091                       # number of WritebackClean hits (Count)
system.l2.WritebackClean.hits::total           459091                       # number of WritebackClean hits (Count)
system.l2.WritebackClean.accesses::writebacks       459091                       # number of WritebackClean accesses(hits+misses) (Count)
system.l2.WritebackClean.accesses::total       459091                       # number of WritebackClean accesses(hits+misses) (Count)
system.l2.WritebackDirty.hits::writebacks     10544293                       # number of WritebackDirty hits (Count)
system.l2.WritebackDirty.hits::total         10544293                       # number of WritebackDirty hits (Count)
system.l2.WritebackDirty.accesses::writebacks     10544293                       # number of WritebackDirty accesses(hits+misses) (Count)
system.l2.WritebackDirty.accesses::total     10544293                       # number of WritebackDirty accesses(hits+misses) (Count)
system.l2.power_state.pwrStateResidencyTicks::UNDEFINED 6707143481086                       # Cumulative time (in ticks) in various power states (Tick)
system.l2.tags.tagsInUse                 32738.633853                       # Average ticks per tags in use ((Tick/Count))
system.l2.tags.totalRefs                    182353226                       # Total number of references to valid blocks. (Count)
system.l2.tags.sampledRefs                   10374294                       # Sample count of references to valid blocks. (Count)
system.l2.tags.avgRefs                      17.577411                       # Average number of references to valid blocks. ((Count/Count))
system.l2.tags.warmupTick                      430000                       # The tick when the warmup percentage was hit. (Tick)
system.l2.tags.occupancies::writebacks      11.401981                       # Average occupied blocks per tick, per requestor ((Count/Tick))
system.l2.tags.occupancies::cpu.inst         9.024728                       # Average occupied blocks per tick, per requestor ((Count/Tick))
system.l2.tags.occupancies::cpu.data     32718.207146                       # Average occupied blocks per tick, per requestor ((Count/Tick))
system.l2.tags.avgOccs::writebacks           0.000348                       # Average percentage of cache occupancy ((Ratio/Tick))
system.l2.tags.avgOccs::cpu.inst             0.000275                       # Average percentage of cache occupancy ((Ratio/Tick))
system.l2.tags.avgOccs::cpu.data             0.998480                       # Average percentage of cache occupancy ((Ratio/Tick))
system.l2.tags.avgOccs::total                0.999104                       # Average percentage of cache occupancy ((Ratio/Tick))
system.l2.tags.occupanciesTaskId::1024          32768                       # Occupied blocks per task id (Count)
system.l2.tags.ageTaskId_1024::0                   41                       # Occupied blocks per task id, per block age (Count)
system.l2.tags.ageTaskId_1024::1                  309                       # Occupied blocks per task id, per block age (Count)
system.l2.tags.ageTaskId_1024::2                  852                       # Occupied blocks per task id, per block age (Count)
system.l2.tags.ageTaskId_1024::3                 9213                       # Occupied blocks per task id, per block age (Count)
system.l2.tags.ageTaskId_1024::4                22353                       # Occupied blocks per task id, per block age (Count)
system.l2.tags.ratioOccsTaskId::1024                1                       # Ratio of occupied blocks and all blocks, per task id (Ratio)
system.l2.tags.tagAccesses                 1469200934                       # Number of tag accesses (Count)
system.l2.tags.dataAccesses                1469200934                       # Number of data accesses (Count)
system.l2.tags.power_state.pwrStateResidencyTicks::UNDEFINED 6707143481086                       # Cumulative time (in ticks) in various power states (Tick)
system.mem_ctrls.bytesRead::cpu.inst           245888                       # Number of bytes read from this memory (Byte)
system.mem_ctrls.bytesRead::cpu.data        663490368                       # Number of bytes read from this memory (Byte)
system.mem_ctrls.bytesRead::total           663736256                       # Number of bytes read from this memory (Byte)
system.mem_ctrls.bytesInstRead::cpu.inst       245888                       # Number of instructions bytes read from this memory (Byte)
system.mem_ctrls.bytesInstRead::total          245888                       # Number of instructions bytes read from this memory (Byte)
system.mem_ctrls.bytesWritten::writebacks    147719616                       # Number of bytes written to this memory (Byte)
system.mem_ctrls.bytesWritten::total        147719616                       # Number of bytes written to this memory (Byte)
system.mem_ctrls.numReads::cpu.inst              3842                       # Number of read requests responded to by this memory (Count)
system.mem_ctrls.numReads::cpu.data          10367037                       # Number of read requests responded to by this memory (Count)
system.mem_ctrls.numReads::total             10370879                       # Number of read requests responded to by this memory (Count)
system.mem_ctrls.numWrites::writebacks        2308119                       # Number of write requests responded to by this memory (Count)
system.mem_ctrls.numWrites::total             2308119                       # Number of write requests responded to by this memory (Count)
system.mem_ctrls.bwRead::cpu.inst               36661                       # Total read bandwidth from this memory ((Byte/Second))
system.mem_ctrls.bwRead::cpu.data            98922942                       # Total read bandwidth from this memory ((Byte/Second))
system.mem_ctrls.bwRead::total               98959603                       # Total read bandwidth from this memory ((Byte/Second))
system.mem_ctrls.bwInstRead::cpu.inst           36661                       # Instruction read bandwidth from this memory ((Byte/Second))
system.mem_ctrls.bwInstRead::total              36661                       # Instruction read bandwidth from this memory ((Byte/Second))
system.mem_ctrls.bwWrite::writebacks         22024222                       # Write bandwidth from this memory ((Byte/Second))
system.mem_ctrls.bwWrite::total              22024222                       # Write bandwidth from this memory ((Byte/Second))
system.mem_ctrls.bwTotal::writebacks         22024222                       # Total bandwidth to/from this memory ((Byte/Second))
system.mem_ctrls.bwTotal::cpu.inst              36661                       # Total bandwidth to/from this memory ((Byte/Second))
system.mem_ctrls.bwTotal::cpu.data           98922942                       # Total bandwidth to/from this memory ((Byte/Second))
system.mem_ctrls.bwTotal::total             120983825                       # Total bandwidth to/from this memory ((Byte/Second))
system.mem_ctrls.power_state.pwrStateResidencyTicks::UNDEFINED 6707143481086                       # Cumulative time (in ticks) in various power states (Tick)
system.membus.transDist::ReadResp             8259096                       # Transaction distribution (Count)
system.membus.transDist::WritebackDirty       2308119                       # Transaction distribution (Count)
system.membus.transDist::CleanEvict           8029688                       # Transaction distribution (Count)
system.membus.transDist::ReadExReq            2111783                       # Transaction distribution (Count)
system.membus.transDist::ReadExResp           2111783                       # Transaction distribution (Count)
system.membus.transDist::ReadSharedReq        8259096                       # Transaction distribution (Count)
system.membus.pktCount_system.l2.mem_side_port::system.mem_ctrls.port     31079565                       # Packet count per connected requestor and responder (Count)
system.membus.pktCount_system.l2.mem_side_port::total     31079565                       # Packet count per connected requestor and responder (Count)
system.membus.pktCount::total                31079565                       # Packet count per connected requestor and responder (Count)
system.membus.pktSize_system.l2.mem_side_port::system.mem_ctrls.port    811455872                       # Cumulative packet size per connected requestor and responder (Byte)
system.membus.pktSize_system.l2.mem_side_port::total    811455872                       # Cumulative packet size per connected requestor and responder (Byte)
system.membus.pktSize::total                811455872                       # Cumulative packet size per connected requestor and responder (Byte)
system.membus.snoops                                0                       # Total snoops (Count)
system.membus.snoopTraffic                          0                       # Total snoop traffic (Byte)
system.membus.snoopFanout::samples           10370879                       # Request fanout histogram (Count)
system.membus.snoopFanout::mean                     0                       # Request fanout histogram (Count)
system.membus.snoopFanout::stdev                    0                       # Request fanout histogram (Count)
system.membus.snoopFanout::underflows               0      0.00%      0.00% # Request fanout histogram (Count)
system.membus.snoopFanout::0                 10370879    100.00%    100.00% # Request fanout histogram (Count)
system.membus.snoopFanout::1                        0      0.00%    100.00% # Request fanout histogram (Count)
system.membus.snoopFanout::overflows                0      0.00%    100.00% # Request fanout histogram (Count)
system.membus.snoopFanout::min_value                0                       # Request fanout histogram (Count)
system.membus.snoopFanout::max_value                0                       # Request fanout histogram (Count)
system.membus.snoopFanout::total             10370879                       # Request fanout histogram (Count)
system.membus.power_state.pwrStateResidencyTicks::UNDEFINED 6707143481086                       # Cumulative time (in ticks) in various power states (Tick)
system.membus.reqLayer2.occupancy         99700827727                       # Layer occupancy (ticks) (Tick)
system.membus.reqLayer2.utilization               0.0                       # Layer utilization (Ratio)
system.membus.respLayer1.occupancy       143584505337                       # Layer occupancy (ticks) (Tick)
system.membus.respLayer1.utilization              0.0                       # Layer utilization (Ratio)
system.membus.snoop_filter.totRequests       20708686                       # Total number of requests made to the snoop filter. (Count)
system.membus.snoop_filter.hitSingleRequests     10337818                       # Number of requests hitting in the snoop filter with a single holder of the requested data. (Count)
system.membus.snoop_filter.hitMultiRequests            0                       # Number of requests hitting in the snoop filter with multiple (>1) holders of the requested data. (Count)
system.membus.snoop_filter.totSnoops                0                       # Total number of snoops made to the snoop filter. (Count)
system.membus.snoop_filter.hitSingleSnoops            0                       # Number of snoops hitting in the snoop filter with a single holder of the requested data. (Count)
system.membus.snoop_filter.hitMultiSnoops            0                       # Number of snoops hitting in the snoop filter with multiple (>1) holders of the requested data. (Count)
system.tol2bus.transDist::ReadResp           88727766                       # Transaction distribution (Count)
system.tol2bus.transDist::WritebackDirty     12852412                       # Transaction distribution (Count)
system.tol2bus.transDist::WritebackClean       459093                       # Transaction distribution (Count)
system.tol2bus.transDist::CleanEvict         88215251                       # Transaction distribution (Count)
system.tol2bus.transDist::UpgradeReq               14                       # Transaction distribution (Count)
system.tol2bus.transDist::UpgradeResp              14                       # Transaction distribution (Count)
system.tol2bus.transDist::ReadExReq           2458512                       # Transaction distribution (Count)
system.tol2bus.transDist::ReadExResp          2458512                       # Transaction distribution (Count)
system.tol2bus.transDist::ReadCleanReq         459630                       # Transaction distribution (Count)
system.tol2bus.transDist::ReadSharedReq      88268137                       # Transaction distribution (Count)
system.tol2bus.pktCount_system.cpu.icache.mem_side_port::system.l2.cpu_side_port      1378330                       # Packet count per connected requestor and responder (Count)
system.tol2bus.pktCount_system.cpu.dcache.mem_side_port::system.l2.cpu_side_port    272179463                       # Packet count per connected requestor and responder (Count)
system.tol2bus.pktCount::total              273557793                       # Packet count per connected requestor and responder (Count)
system.tol2bus.pktSize_system.cpu.icache.mem_side_port::system.l2.cpu_side_port     58796800                       # Cumulative packet size per connected requestor and responder (Byte)
system.tol2bus.pktSize_system.cpu.dcache.mem_side_port::system.l2.cpu_side_port   6481340288                       # Cumulative packet size per connected requestor and responder (Byte)
system.tol2bus.pktSize::total              6540137088                       # Cumulative packet size per connected requestor and responder (Byte)
system.tol2bus.snoops                        10341548                       # Total snoops (Count)
system.tol2bus.snoopTraffic                 147721024                       # Total snoop traffic (Byte)
system.tol2bus.snoopFanout::samples         101527819                       # Request fanout histogram (Count)
system.tol2bus.snoopFanout::mean             0.000527                       # Request fanout histogram (Count)
system.tol2bus.snoopFanout::stdev            0.022959                       # Request fanout histogram (Count)
system.tol2bus.snoopFanout::underflows              0      0.00%      0.00% # Request fanout histogram (Count)
system.tol2bus.snoopFanout::0               101474276     99.95%     99.95% # Request fanout histogram (Count)
system.tol2bus.snoopFanout::1                   53543      0.05%    100.00% # Request fanout histogram (Count)
system.tol2bus.snoopFanout::2                       0      0.00%    100.00% # Request fanout histogram (Count)
system.tol2bus.snoopFanout::3                       0      0.00%    100.00% # Request fanout histogram (Count)
system.tol2bus.snoopFanout::4                       0      0.00%    100.00% # Request fanout histogram (Count)
system.tol2bus.snoopFanout::overflows               0      0.00%    100.00% # Request fanout histogram (Count)
system.tol2bus.snoopFanout::min_value               0                       # Request fanout histogram (Count)
system.tol2bus.snoopFanout::max_value               1                       # Request fanout histogram (Count)
system.tol2bus.snoopFanout::total           101527819                       # Request fanout histogram (Count)
system.tol2bus.power_state.pwrStateResidencyTicks::UNDEFINED 6707143481086                       # Cumulative time (in ticks) in various power states (Tick)
system.tol2bus.reqLayer0.occupancy        63970406335                       # Layer occupancy (ticks) (Tick)
system.tol2bus.reqLayer0.utilization              0.0                       # Layer utilization (Ratio)
system.tol2bus.respLayer0.occupancy         431614095                       # Layer occupancy (ticks) (Tick)
system.tol2bus.respLayer0.utilization             0.0                       # Layer utilization (Ratio)
system.tol2bus.respLayer1.occupancy       85192327793                       # Layer occupancy (ticks) (Tick)
system.tol2bus.respLayer1.utilization             0.0                       # Layer utilization (Ratio)
system.tol2bus.snoop_filter.totRequests     182371523                       # Total number of requests made to the snoop filter. (Count)
system.tol2bus.snoop_filter.hitSingleRequests     91185240                       # Number of requests hitting in the snoop filter with a single holder of the requested data. (Count)
system.tol2bus.snoop_filter.hitMultiRequests        49638                       # Number of requests hitting in the snoop filter with multiple (>1) holders of the requested data. (Count)
system.tol2bus.snoop_filter.totSnoops            3901                       # Total number of snoops made to the snoop filter. (Count)
system.tol2bus.snoop_filter.hitSingleSnoops         3901                       # Number of snoops hitting in the snoop filter with a single holder of the requested data. (Count)
system.tol2bus.snoop_filter.hitMultiSnoops            0                       # Number of snoops hitting in the snoop filter with multiple (>1) holders of the requested data. (Count)
system.voltage_domain.voltage                       1                       # Voltage in Volts (Volt)
system.workload.inst.arm                            0                       # number of arm instructions executed (Count)
system.workload.inst.quiesce                        0                       # number of quiesce instructions executed (Count)

---------- End Simulation Statistics   ----------
