
---------- Begin Simulation Statistics ----------
simSeconds                                   0.014131                       # Number of seconds simulated (Second)
simTicks                                  14130721162                       # Number of ticks simulated (Tick)
finalTick                                 14130721162                       # Number of ticks from beginning of simulation (restored from checkpoints and never reset) (Tick)
simFreq                                  1000000000000                       # The number of ticks per simulated second ((Tick/Second))
hostSeconds                                     48.55                       # Real time elapsed on the host (Second)
hostTickRate                                291071368                       # The number of ticks simulated per host second (ticks/s) ((Tick/Second))
hostMemory                                     931616                       # Number of bytes of host memory used (Byte)
simInsts                                      5671228                       # Number of instructions simulated (Count)
simOps                                       11148318                       # Number of ops (including micro ops) simulated (Count)
hostInstRate                                   116818                       # Simulator instruction rate (inst/s) ((Count/Second))
hostOpRate                                     229638                       # Simulator op (including micro ops) rate (op/s) ((Count/Second))
system.clk_domain.clock                          2500                       # Clock period in ticks (Tick)
system.cpu.numCycles                         45146075                       # Number of cpu cycles simulated (Cycle)
system.cpu.cpi                               7.960547                       # CPI: cycles per instruction (core level) ((Cycle/Count))
system.cpu.ipc                               0.125620                       # IPC: instructions per cycle (core level) ((Count/Cycle))
system.cpu.numWorkItemsStarted                      0                       # Number of work items this cpu started (Count)
system.cpu.numWorkItemsCompleted                    0                       # Number of work items this cpu completed (Count)
system.cpu.instsAdded                        11514948                       # Number of instructions added to the IQ (excludes non-spec) (Count)
system.cpu.nonSpecInstsAdded                      748                       # Number of non-speculative instructions added to the IQ (Count)
system.cpu.instsIssued                       11409639                       # Number of instructions issued (Count)
system.cpu.squashedInstsIssued                   1592                       # Number of squashed instructions issued (Count)
system.cpu.squashedInstsExamined               367372                       # Number of squashed instructions iterated over during squash; mainly for profiling (Count)
system.cpu.squashedOperandsExamined            683657                       # Number of squashed operands that are examined and possibly removed from graph (Count)
system.cpu.squashedNonSpecRemoved                 163                       # Number of squashed non-spec instructions that were removed (Count)
system.cpu.numIssuedDist::samples            43322858                       # Number of insts issued each cycle (Count)
system.cpu.numIssuedDist::mean               0.263363                       # Number of insts issued each cycle (Count)
system.cpu.numIssuedDist::stdev              1.131258                       # Number of insts issued each cycle (Count)
system.cpu.numIssuedDist::underflows                0      0.00%      0.00% # Number of insts issued each cycle (Count)
system.cpu.numIssuedDist::0                  40325736     93.08%     93.08% # Number of insts issued each cycle (Count)
system.cpu.numIssuedDist::1                    720578      1.66%     94.75% # Number of insts issued each cycle (Count)
system.cpu.numIssuedDist::2                    187212      0.43%     95.18% # Number of insts issued each cycle (Count)
system.cpu.numIssuedDist::3                    638960      1.47%     96.65% # Number of insts issued each cycle (Count)
system.cpu.numIssuedDist::4                    261659      0.60%     97.26% # Number of insts issued each cycle (Count)
system.cpu.numIssuedDist::5                    472342      1.09%     98.35% # Number of insts issued each cycle (Count)
system.cpu.numIssuedDist::6                    253769      0.59%     98.93% # Number of insts issued each cycle (Count)
system.cpu.numIssuedDist::7                    234019      0.54%     99.47% # Number of insts issued each cycle (Count)
system.cpu.numIssuedDist::8                    228583      0.53%    100.00% # Number of insts issued each cycle (Count)
system.cpu.numIssuedDist::overflows                 0      0.00%    100.00% # Number of insts issued each cycle (Count)
system.cpu.numIssuedDist::min_value                 0                       # Number of insts issued each cycle (Count)
system.cpu.numIssuedDist::max_value                 8                       # Number of insts issued each cycle (Count)
system.cpu.numIssuedDist::total              43322858                       # Number of insts issued each cycle (Count)
system.cpu.statFuBusy::No_OpClass                   0      0.00%      0.00% # attempts to use FU when none available (Count)
system.cpu.statFuBusy::IntAlu                   85953     95.99%     95.99% # attempts to use FU when none available (Count)
system.cpu.statFuBusy::IntMult                      0      0.00%     95.99% # attempts to use FU when none available (Count)
system.cpu.statFuBusy::IntDiv                       0      0.00%     95.99% # attempts to use FU when none available (Count)
system.cpu.statFuBusy::FloatAdd                     0      0.00%     95.99% # attempts to use FU when none available (Count)
system.cpu.statFuBusy::FloatCmp                     0      0.00%     95.99% # attempts to use FU when none available (Count)
system.cpu.statFuBusy::FloatCvt                     1      0.00%     95.99% # attempts to use FU when none available (Count)
system.cpu.statFuBusy::FloatMult                    0      0.00%     95.99% # attempts to use FU when none available (Count)
system.cpu.statFuBusy::FloatMultAcc                 0      0.00%     95.99% # attempts to use FU when none available (Count)
system.cpu.statFuBusy::FloatDiv                     0      0.00%     95.99% # attempts to use FU when none available (Count)
system.cpu.statFuBusy::FloatMisc                    0      0.00%     95.99% # attempts to use FU when none available (Count)
system.cpu.statFuBusy::FloatSqrt                    0      0.00%     95.99% # attempts to use FU when none available (Count)
system.cpu.statFuBusy::SimdAdd                      0      0.00%     95.99% # attempts to use FU when none available (Count)
system.cpu.statFuBusy::SimdAddAcc                   0      0.00%     95.99% # attempts to use FU when none available (Count)
system.cpu.statFuBusy::SimdAlu                      8      0.01%     96.00% # attempts to use FU when none available (Count)
system.cpu.statFuBusy::SimdCmp                      0      0.00%     96.00% # attempts to use FU when none available (Count)
system.cpu.statFuBusy::SimdCvt                      2      0.00%     96.00% # attempts to use FU when none available (Count)
system.cpu.statFuBusy::SimdMisc                     0      0.00%     96.00% # attempts to use FU when none available (Count)
system.cpu.statFuBusy::SimdMult                     0      0.00%     96.00% # attempts to use FU when none available (Count)
system.cpu.statFuBusy::SimdMultAcc                  0      0.00%     96.00% # attempts to use FU when none available (Count)
system.cpu.statFuBusy::SimdMatMultAcc               0      0.00%     96.00% # attempts to use FU when none available (Count)
system.cpu.statFuBusy::SimdShift                    0      0.00%     96.00% # attempts to use FU when none available (Count)
system.cpu.statFuBusy::SimdShiftAcc                 0      0.00%     96.00% # attempts to use FU when none available (Count)
system.cpu.statFuBusy::SimdDiv                      0      0.00%     96.00% # attempts to use FU when none available (Count)
system.cpu.statFuBusy::SimdSqrt                     0      0.00%     96.00% # attempts to use FU when none available (Count)
system.cpu.statFuBusy::SimdFloatAdd                 0      0.00%     96.00% # attempts to use FU when none available (Count)
system.cpu.statFuBusy::SimdFloatAlu                 0      0.00%     96.00% # attempts to use FU when none available (Count)
system.cpu.statFuBusy::SimdFloatCmp                 0      0.00%     96.00% # attempts to use FU when none available (Count)
system.cpu.statFuBusy::SimdFloatCvt                 0      0.00%     96.00% # attempts to use FU when none available (Count)
system.cpu.statFuBusy::SimdFloatDiv                 0      0.00%     96.00% # attempts to use FU when none available (Count)
system.cpu.statFuBusy::SimdFloatMisc                0      0.00%     96.00% # attempts to use FU when none available (Count)
system.cpu.statFuBusy::SimdFloatMult                0      0.00%     96.00% # attempts to use FU when none available (Count)
system.cpu.statFuBusy::SimdFloatMultAcc             0      0.00%     96.00% # attempts to use FU when none available (Count)
system.cpu.statFuBusy::SimdFloatMatMultAcc            0      0.00%     96.00% # attempts to use FU when none available (Count)
system.cpu.statFuBusy::SimdFloatSqrt                0      0.00%     96.00% # attempts to use FU when none available (Count)
system.cpu.statFuBusy::SimdReduceAdd                0      0.00%     96.00% # attempts to use FU when none available (Count)
system.cpu.statFuBusy::SimdReduceAlu                0      0.00%     96.00% # attempts to use FU when none available (Count)
system.cpu.statFuBusy::SimdReduceCmp                0      0.00%     96.00% # attempts to use FU when none available (Count)
system.cpu.statFuBusy::SimdFloatReduceAdd            0      0.00%     96.00% # attempts to use FU when none available (Count)
system.cpu.statFuBusy::SimdFloatReduceCmp            0      0.00%     96.00% # attempts to use FU when none available (Count)
system.cpu.statFuBusy::SimdAes                      0      0.00%     96.00% # attempts to use FU when none available (Count)
system.cpu.statFuBusy::SimdAesMix                   0      0.00%     96.00% # attempts to use FU when none available (Count)
system.cpu.statFuBusy::SimdSha1Hash                 0      0.00%     96.00% # attempts to use FU when none available (Count)
system.cpu.statFuBusy::SimdSha1Hash2                0      0.00%     96.00% # attempts to use FU when none available (Count)
system.cpu.statFuBusy::SimdSha256Hash               0      0.00%     96.00% # attempts to use FU when none available (Count)
system.cpu.statFuBusy::SimdSha256Hash2              0      0.00%     96.00% # attempts to use FU when none available (Count)
system.cpu.statFuBusy::SimdShaSigma2                0      0.00%     96.00% # attempts to use FU when none available (Count)
system.cpu.statFuBusy::SimdShaSigma3                0      0.00%     96.00% # attempts to use FU when none available (Count)
system.cpu.statFuBusy::SimdPredAlu                  0      0.00%     96.00% # attempts to use FU when none available (Count)
system.cpu.statFuBusy::Matrix                       0      0.00%     96.00% # attempts to use FU when none available (Count)
system.cpu.statFuBusy::MatrixMov                    0      0.00%     96.00% # attempts to use FU when none available (Count)
system.cpu.statFuBusy::MatrixOP                     0      0.00%     96.00% # attempts to use FU when none available (Count)
system.cpu.statFuBusy::MemRead                   2210      2.47%     98.47% # attempts to use FU when none available (Count)
system.cpu.statFuBusy::MemWrite                  1313      1.47%     99.94% # attempts to use FU when none available (Count)
system.cpu.statFuBusy::FloatMemRead                56      0.06%    100.00% # attempts to use FU when none available (Count)
system.cpu.statFuBusy::FloatMemWrite                2      0.00%    100.00% # attempts to use FU when none available (Count)
system.cpu.statFuBusy::IprAccess                    0      0.00%    100.00% # attempts to use FU when none available (Count)
system.cpu.statFuBusy::InstPrefetch                 0      0.00%    100.00% # attempts to use FU when none available (Count)
system.cpu.statFuBusy::SimdUnitStrideLoad            0      0.00%    100.00% # attempts to use FU when none available (Count)
system.cpu.statFuBusy::SimdUnitStrideStore            0      0.00%    100.00% # attempts to use FU when none available (Count)
system.cpu.statFuBusy::SimdUnitStrideMaskLoad            0      0.00%    100.00% # attempts to use FU when none available (Count)
system.cpu.statFuBusy::SimdUnitStrideMaskStore            0      0.00%    100.00% # attempts to use FU when none available (Count)
system.cpu.statFuBusy::SimdStridedLoad              0      0.00%    100.00% # attempts to use FU when none available (Count)
system.cpu.statFuBusy::SimdStridedStore             0      0.00%    100.00% # attempts to use FU when none available (Count)
system.cpu.statFuBusy::SimdIndexedLoad              0      0.00%    100.00% # attempts to use FU when none available (Count)
system.cpu.statFuBusy::SimdIndexedStore             0      0.00%    100.00% # attempts to use FU when none available (Count)
system.cpu.statFuBusy::SimdWholeRegisterLoad            0      0.00%    100.00% # attempts to use FU when none available (Count)
system.cpu.statFuBusy::SimdWholeRegisterStore            0      0.00%    100.00% # attempts to use FU when none available (Count)
system.cpu.statFuBusy::SimdUnitStrideFaultOnlyFirstLoad            0      0.00%    100.00% # attempts to use FU when none available (Count)
system.cpu.statFuBusy::SimdUnitStrideSegmentedLoad            0      0.00%    100.00% # attempts to use FU when none available (Count)
system.cpu.statFuBusy::SimdUnitStrideSegmentedStore            0      0.00%    100.00% # attempts to use FU when none available (Count)
system.cpu.statFuBusy::SimdExt                      0      0.00%    100.00% # attempts to use FU when none available (Count)
system.cpu.statFuBusy::SimdFloatExt                 0      0.00%    100.00% # attempts to use FU when none available (Count)
system.cpu.statFuBusy::SimdConfig                   0      0.00%    100.00% # attempts to use FU when none available (Count)
system.cpu.statIssuedInstType_0::No_OpClass         4305      0.04%      0.04% # Number of instructions issued per FU type, per thread (Count)
system.cpu.statIssuedInstType_0::IntAlu       8696240     76.22%     76.26% # Number of instructions issued per FU type, per thread (Count)
system.cpu.statIssuedInstType_0::IntMult           67      0.00%     76.26% # Number of instructions issued per FU type, per thread (Count)
system.cpu.statIssuedInstType_0::IntDiv          4076      0.04%     76.29% # Number of instructions issued per FU type, per thread (Count)
system.cpu.statIssuedInstType_0::FloatAdd          115      0.00%     76.29% # Number of instructions issued per FU type, per thread (Count)
system.cpu.statIssuedInstType_0::FloatCmp            0      0.00%     76.29% # Number of instructions issued per FU type, per thread (Count)
system.cpu.statIssuedInstType_0::FloatCvt          224      0.00%     76.30% # Number of instructions issued per FU type, per thread (Count)
system.cpu.statIssuedInstType_0::FloatMult            0      0.00%     76.30% # Number of instructions issued per FU type, per thread (Count)
system.cpu.statIssuedInstType_0::FloatMultAcc            0      0.00%     76.30% # Number of instructions issued per FU type, per thread (Count)
system.cpu.statIssuedInstType_0::FloatDiv            0      0.00%     76.30% # Number of instructions issued per FU type, per thread (Count)
system.cpu.statIssuedInstType_0::FloatMisc            0      0.00%     76.30% # Number of instructions issued per FU type, per thread (Count)
system.cpu.statIssuedInstType_0::FloatSqrt            0      0.00%     76.30% # Number of instructions issued per FU type, per thread (Count)
system.cpu.statIssuedInstType_0::SimdAdd           16      0.00%     76.30% # Number of instructions issued per FU type, per thread (Count)
system.cpu.statIssuedInstType_0::SimdAddAcc            0      0.00%     76.30% # Number of instructions issued per FU type, per thread (Count)
system.cpu.statIssuedInstType_0::SimdAlu          269      0.00%     76.30% # Number of instructions issued per FU type, per thread (Count)
system.cpu.statIssuedInstType_0::SimdCmp            0      0.00%     76.30% # Number of instructions issued per FU type, per thread (Count)
system.cpu.statIssuedInstType_0::SimdCvt          247      0.00%     76.30% # Number of instructions issued per FU type, per thread (Count)
system.cpu.statIssuedInstType_0::SimdMisc          239      0.00%     76.30% # Number of instructions issued per FU type, per thread (Count)
system.cpu.statIssuedInstType_0::SimdMult            0      0.00%     76.30% # Number of instructions issued per FU type, per thread (Count)
system.cpu.statIssuedInstType_0::SimdMultAcc            0      0.00%     76.30% # Number of instructions issued per FU type, per thread (Count)
system.cpu.statIssuedInstType_0::SimdMatMultAcc            0      0.00%     76.30% # Number of instructions issued per FU type, per thread (Count)
system.cpu.statIssuedInstType_0::SimdShift            0      0.00%     76.30% # Number of instructions issued per FU type, per thread (Count)
system.cpu.statIssuedInstType_0::SimdShiftAcc            0      0.00%     76.30% # Number of instructions issued per FU type, per thread (Count)
system.cpu.statIssuedInstType_0::SimdDiv            0      0.00%     76.30% # Number of instructions issued per FU type, per thread (Count)
system.cpu.statIssuedInstType_0::SimdSqrt            0      0.00%     76.30% # Number of instructions issued per FU type, per thread (Count)
system.cpu.statIssuedInstType_0::SimdFloatAdd            0      0.00%     76.30% # Number of instructions issued per FU type, per thread (Count)
system.cpu.statIssuedInstType_0::SimdFloatAlu            0      0.00%     76.30% # Number of instructions issued per FU type, per thread (Count)
system.cpu.statIssuedInstType_0::SimdFloatCmp            0      0.00%     76.30% # Number of instructions issued per FU type, per thread (Count)
system.cpu.statIssuedInstType_0::SimdFloatCvt            0      0.00%     76.30% # Number of instructions issued per FU type, per thread (Count)
system.cpu.statIssuedInstType_0::SimdFloatDiv            0      0.00%     76.30% # Number of instructions issued per FU type, per thread (Count)
system.cpu.statIssuedInstType_0::SimdFloatMisc            0      0.00%     76.30% # Number of instructions issued per FU type, per thread (Count)
system.cpu.statIssuedInstType_0::SimdFloatMult            0      0.00%     76.30% # Number of instructions issued per FU type, per thread (Count)
system.cpu.statIssuedInstType_0::SimdFloatMultAcc            0      0.00%     76.30% # Number of instructions issued per FU type, per thread (Count)
system.cpu.statIssuedInstType_0::SimdFloatMatMultAcc            0      0.00%     76.30% # Number of instructions issued per FU type, per thread (Count)
system.cpu.statIssuedInstType_0::SimdFloatSqrt            0      0.00%     76.30% # Number of instructions issued per FU type, per thread (Count)
system.cpu.statIssuedInstType_0::SimdReduceAdd            0      0.00%     76.30% # Number of instructions issued per FU type, per thread (Count)
system.cpu.statIssuedInstType_0::SimdReduceAlu            0      0.00%     76.30% # Number of instructions issued per FU type, per thread (Count)
system.cpu.statIssuedInstType_0::SimdReduceCmp            0      0.00%     76.30% # Number of instructions issued per FU type, per thread (Count)
system.cpu.statIssuedInstType_0::SimdFloatReduceAdd            0      0.00%     76.30% # Number of instructions issued per FU type, per thread (Count)
system.cpu.statIssuedInstType_0::SimdFloatReduceCmp            0      0.00%     76.30% # Number of instructions issued per FU type, per thread (Count)
system.cpu.statIssuedInstType_0::SimdAes            0      0.00%     76.30% # Number of instructions issued per FU type, per thread (Count)
system.cpu.statIssuedInstType_0::SimdAesMix            0      0.00%     76.30% # Number of instructions issued per FU type, per thread (Count)
system.cpu.statIssuedInstType_0::SimdSha1Hash            0      0.00%     76.30% # Number of instructions issued per FU type, per thread (Count)
system.cpu.statIssuedInstType_0::SimdSha1Hash2            0      0.00%     76.30% # Number of instructions issued per FU type, per thread (Count)
system.cpu.statIssuedInstType_0::SimdSha256Hash            0      0.00%     76.30% # Number of instructions issued per FU type, per thread (Count)
system.cpu.statIssuedInstType_0::SimdSha256Hash2            0      0.00%     76.30% # Number of instructions issued per FU type, per thread (Count)
system.cpu.statIssuedInstType_0::SimdShaSigma2            0      0.00%     76.30% # Number of instructions issued per FU type, per thread (Count)
system.cpu.statIssuedInstType_0::SimdShaSigma3            0      0.00%     76.30% # Number of instructions issued per FU type, per thread (Count)
system.cpu.statIssuedInstType_0::SimdPredAlu            0      0.00%     76.30% # Number of instructions issued per FU type, per thread (Count)
system.cpu.statIssuedInstType_0::Matrix             0      0.00%     76.30% # Number of instructions issued per FU type, per thread (Count)
system.cpu.statIssuedInstType_0::MatrixMov            0      0.00%     76.30% # Number of instructions issued per FU type, per thread (Count)
system.cpu.statIssuedInstType_0::MatrixOP            0      0.00%     76.30% # Number of instructions issued per FU type, per thread (Count)
system.cpu.statIssuedInstType_0::MemRead      1764773     15.47%     91.77% # Number of instructions issued per FU type, per thread (Count)
system.cpu.statIssuedInstType_0::MemWrite       937880      8.22%     99.99% # Number of instructions issued per FU type, per thread (Count)
system.cpu.statIssuedInstType_0::FloatMemRead          736      0.01%    100.00% # Number of instructions issued per FU type, per thread (Count)
system.cpu.statIssuedInstType_0::FloatMemWrite          452      0.00%    100.00% # Number of instructions issued per FU type, per thread (Count)
system.cpu.statIssuedInstType_0::IprAccess            0      0.00%    100.00% # Number of instructions issued per FU type, per thread (Count)
system.cpu.statIssuedInstType_0::InstPrefetch            0      0.00%    100.00% # Number of instructions issued per FU type, per thread (Count)
system.cpu.statIssuedInstType_0::SimdUnitStrideLoad            0      0.00%    100.00% # Number of instructions issued per FU type, per thread (Count)
system.cpu.statIssuedInstType_0::SimdUnitStrideStore            0      0.00%    100.00% # Number of instructions issued per FU type, per thread (Count)
system.cpu.statIssuedInstType_0::SimdUnitStrideMaskLoad            0      0.00%    100.00% # Number of instructions issued per FU type, per thread (Count)
system.cpu.statIssuedInstType_0::SimdUnitStrideMaskStore            0      0.00%    100.00% # Number of instructions issued per FU type, per thread (Count)
system.cpu.statIssuedInstType_0::SimdStridedLoad            0      0.00%    100.00% # Number of instructions issued per FU type, per thread (Count)
system.cpu.statIssuedInstType_0::SimdStridedStore            0      0.00%    100.00% # Number of instructions issued per FU type, per thread (Count)
system.cpu.statIssuedInstType_0::SimdIndexedLoad            0      0.00%    100.00% # Number of instructions issued per FU type, per thread (Count)
system.cpu.statIssuedInstType_0::SimdIndexedStore            0      0.00%    100.00% # Number of instructions issued per FU type, per thread (Count)
system.cpu.statIssuedInstType_0::SimdWholeRegisterLoad            0      0.00%    100.00% # Number of instructions issued per FU type, per thread (Count)
system.cpu.statIssuedInstType_0::SimdWholeRegisterStore            0      0.00%    100.00% # Number of instructions issued per FU type, per thread (Count)
system.cpu.statIssuedInstType_0::SimdUnitStrideFaultOnlyFirstLoad            0      0.00%    100.00% # Number of instructions issued per FU type, per thread (Count)
system.cpu.statIssuedInstType_0::SimdUnitStrideSegmentedLoad            0      0.00%    100.00% # Number of instructions issued per FU type, per thread (Count)
system.cpu.statIssuedInstType_0::SimdUnitStrideSegmentedStore            0      0.00%    100.00% # Number of instructions issued per FU type, per thread (Count)
system.cpu.statIssuedInstType_0::SimdExt            0      0.00%    100.00% # Number of instructions issued per FU type, per thread (Count)
system.cpu.statIssuedInstType_0::SimdFloatExt            0      0.00%    100.00% # Number of instructions issued per FU type, per thread (Count)
system.cpu.statIssuedInstType_0::SimdConfig            0      0.00%    100.00% # Number of instructions issued per FU type, per thread (Count)
system.cpu.statIssuedInstType_0::total       11409639                       # Number of instructions issued per FU type, per thread (Count)
system.cpu.issueRate                         0.252727                       # Inst issue rate ((Count/Cycle))
system.cpu.fuBusy                               89545                       # FU busy when requested (Count)
system.cpu.fuBusyRate                        0.007848                       # FU busy rate (busy events/executed inst) ((Count/Count))
system.cpu.intInstQueueReads                 66228574                       # Number of integer instruction queue reads (Count)
system.cpu.intInstQueueWrites                11880401                       # Number of integer instruction queue writes (Count)
system.cpu.intInstQueueWakeupAccesses        11376558                       # Number of integer instruction queue wakeup accesses (Count)
system.cpu.fpInstQueueReads                      4699                       # Number of floating instruction queue reads (Count)
system.cpu.fpInstQueueWrites                     2803                       # Number of floating instruction queue writes (Count)
system.cpu.fpInstQueueWakeupAccesses             2244                       # Number of floating instruction queue wakeup accesses (Count)
system.cpu.vecInstQueueReads                        0                       # Number of vector instruction queue reads (Count)
system.cpu.vecInstQueueWrites                       0                       # Number of vector instruction queue writes (Count)
system.cpu.vecInstQueueWakeupAccesses               0                       # Number of vector instruction queue wakeup accesses (Count)
system.cpu.intAluAccesses                    11492495                       # Number of integer alu accesses (Count)
system.cpu.fpAluAccesses                         2384                       # Number of floating point alu accesses (Count)
system.cpu.vecAluAccesses                           0                       # Number of vector alu accesses (Count)
system.cpu.numSquashedInsts                     15049                       # Number of squashed instructions skipped in execute (Count)
system.cpu.numSwp                                   0                       # Number of swp insts executed (Count)
system.cpu.timesIdled                            1261                       # Number of times that the entire CPU went into an idle state and unscheduled itself (Count)
system.cpu.idleCycles                         1823217                       # Total number of cycles that the CPU has spent unscheduled due to idling (Cycle)
system.cpu.MemDepUnit__0.insertedLoads        1776894                       # Number of loads inserted to the mem dependence unit. (Count)
system.cpu.MemDepUnit__0.insertedStores        942495                       # Number of stores inserted to the mem dependence unit. (Count)
system.cpu.MemDepUnit__0.conflictingLoads       299975                       # Number of conflicting loads. (Count)
system.cpu.MemDepUnit__0.conflictingStores        76111                       # Number of conflicting stores. (Count)
system.cpu.MemDepUnit__1.insertedLoads              0                       # Number of loads inserted to the mem dependence unit. (Count)
system.cpu.MemDepUnit__1.insertedStores             0                       # Number of stores inserted to the mem dependence unit. (Count)
system.cpu.MemDepUnit__1.conflictingLoads            0                       # Number of conflicting loads. (Count)
system.cpu.MemDepUnit__1.conflictingStores            0                       # Number of conflicting stores. (Count)
system.cpu.MemDepUnit__2.insertedLoads              0                       # Number of loads inserted to the mem dependence unit. (Count)
system.cpu.MemDepUnit__2.insertedStores             0                       # Number of stores inserted to the mem dependence unit. (Count)
system.cpu.MemDepUnit__2.conflictingLoads            0                       # Number of conflicting loads. (Count)
system.cpu.MemDepUnit__2.conflictingStores            0                       # Number of conflicting stores. (Count)
system.cpu.MemDepUnit__3.insertedLoads              0                       # Number of loads inserted to the mem dependence unit. (Count)
system.cpu.MemDepUnit__3.insertedStores             0                       # Number of stores inserted to the mem dependence unit. (Count)
system.cpu.MemDepUnit__3.conflictingLoads            0                       # Number of conflicting loads. (Count)
system.cpu.MemDepUnit__3.conflictingStores            0                       # Number of conflicting stores. (Count)
system.cpu.branchPred.lookups_0::NoBranch            0      0.00%      0.00% # Number of BP lookups (Count)
system.cpu.branchPred.lookups_0::Return        235199     17.45%     17.45% # Number of BP lookups (Count)
system.cpu.branchPred.lookups_0::CallDirect       228376     16.94%     34.38% # Number of BP lookups (Count)
system.cpu.branchPred.lookups_0::CallIndirect          480      0.04%     34.42% # Number of BP lookups (Count)
system.cpu.branchPred.lookups_0::DirectCond       798692     59.24%     93.66% # Number of BP lookups (Count)
system.cpu.branchPred.lookups_0::DirectUncond         9024      0.67%     94.33% # Number of BP lookups (Count)
system.cpu.branchPred.lookups_0::IndirectCond            0      0.00%     94.33% # Number of BP lookups (Count)
system.cpu.branchPred.lookups_0::IndirectUncond        76423      5.67%    100.00% # Number of BP lookups (Count)
system.cpu.branchPred.lookups_0::total        1348194                       # Number of BP lookups (Count)
system.cpu.branchPred.squashes_0::NoBranch            0      0.00%      0.00% # Number of branches that got squashed (completely removed) as an earlier branch was mispredicted. (Count)
system.cpu.branchPred.squashes_0::Return         9670     11.74%     11.74% # Number of branches that got squashed (completely removed) as an earlier branch was mispredicted. (Count)
system.cpu.branchPred.squashes_0::CallDirect         3152      3.83%     15.57% # Number of branches that got squashed (completely removed) as an earlier branch was mispredicted. (Count)
system.cpu.branchPred.squashes_0::CallIndirect          171      0.21%     15.77% # Number of branches that got squashed (completely removed) as an earlier branch was mispredicted. (Count)
system.cpu.branchPred.squashes_0::DirectCond        62498     75.88%     91.65% # Number of branches that got squashed (completely removed) as an earlier branch was mispredicted. (Count)
system.cpu.branchPred.squashes_0::DirectUncond         5016      6.09%     97.74% # Number of branches that got squashed (completely removed) as an earlier branch was mispredicted. (Count)
system.cpu.branchPred.squashes_0::IndirectCond            0      0.00%     97.74% # Number of branches that got squashed (completely removed) as an earlier branch was mispredicted. (Count)
system.cpu.branchPred.squashes_0::IndirectUncond         1861      2.26%    100.00% # Number of branches that got squashed (completely removed) as an earlier branch was mispredicted. (Count)
system.cpu.branchPred.squashes_0::total         82368                       # Number of branches that got squashed (completely removed) as an earlier branch was mispredicted. (Count)
system.cpu.branchPred.corrected_0::NoBranch            0      0.00%      0.00% # Number of branches that got corrected but not yet commited. Branches get corrected by decode or after execute. Also a branch misprediction can be detected out-of-order. Therefore, a corrected branch might not end up beeing committed in case an even earlier branch was mispredicted (Count)
system.cpu.branchPred.corrected_0::Return           10      0.09%      0.09% # Number of branches that got corrected but not yet commited. Branches get corrected by decode or after execute. Also a branch misprediction can be detected out-of-order. Therefore, a corrected branch might not end up beeing committed in case an even earlier branch was mispredicted (Count)
system.cpu.branchPred.corrected_0::CallDirect          770      6.77%      6.86% # Number of branches that got corrected but not yet commited. Branches get corrected by decode or after execute. Also a branch misprediction can be detected out-of-order. Therefore, a corrected branch might not end up beeing committed in case an even earlier branch was mispredicted (Count)
system.cpu.branchPred.corrected_0::CallIndirect          133      1.17%      8.03% # Number of branches that got corrected but not yet commited. Branches get corrected by decode or after execute. Also a branch misprediction can be detected out-of-order. Therefore, a corrected branch might not end up beeing committed in case an even earlier branch was mispredicted (Count)
system.cpu.branchPred.corrected_0::DirectCond         9571     84.14%     92.17% # Number of branches that got corrected but not yet commited. Branches get corrected by decode or after execute. Also a branch misprediction can be detected out-of-order. Therefore, a corrected branch might not end up beeing committed in case an even earlier branch was mispredicted (Count)
system.cpu.branchPred.corrected_0::DirectUncond          653      5.74%     97.91% # Number of branches that got corrected but not yet commited. Branches get corrected by decode or after execute. Also a branch misprediction can be detected out-of-order. Therefore, a corrected branch might not end up beeing committed in case an even earlier branch was mispredicted (Count)
system.cpu.branchPred.corrected_0::IndirectCond            0      0.00%     97.91% # Number of branches that got corrected but not yet commited. Branches get corrected by decode or after execute. Also a branch misprediction can be detected out-of-order. Therefore, a corrected branch might not end up beeing committed in case an even earlier branch was mispredicted (Count)
system.cpu.branchPred.corrected_0::IndirectUncond          238      2.09%    100.00% # Number of branches that got corrected but not yet commited. Branches get corrected by decode or after execute. Also a branch misprediction can be detected out-of-order. Therefore, a corrected branch might not end up beeing committed in case an even earlier branch was mispredicted (Count)
system.cpu.branchPred.corrected_0::total        11375                       # Number of branches that got corrected but not yet commited. Branches get corrected by decode or after execute. Also a branch misprediction can be detected out-of-order. Therefore, a corrected branch might not end up beeing committed in case an even earlier branch was mispredicted (Count)
system.cpu.branchPred.earlyResteers_0::NoBranch            0                       # Number of branches that got redirected after decode. (Count)
system.cpu.branchPred.earlyResteers_0::Return            0                       # Number of branches that got redirected after decode. (Count)
system.cpu.branchPred.earlyResteers_0::CallDirect            0                       # Number of branches that got redirected after decode. (Count)
system.cpu.branchPred.earlyResteers_0::CallIndirect            0                       # Number of branches that got redirected after decode. (Count)
system.cpu.branchPred.earlyResteers_0::DirectCond            0                       # Number of branches that got redirected after decode. (Count)
system.cpu.branchPred.earlyResteers_0::DirectUncond            0                       # Number of branches that got redirected after decode. (Count)
system.cpu.branchPred.earlyResteers_0::IndirectCond            0                       # Number of branches that got redirected after decode. (Count)
system.cpu.branchPred.earlyResteers_0::IndirectUncond            0                       # Number of branches that got redirected after decode. (Count)
system.cpu.branchPred.earlyResteers_0::total            0                       # Number of branches that got redirected after decode. (Count)
system.cpu.branchPred.committed_0::NoBranch            0      0.00%      0.00% # Number of branches finally committed  (Count)
system.cpu.branchPred.committed_0::Return       225529     17.82%     17.82% # Number of branches finally committed  (Count)
system.cpu.branchPred.committed_0::CallDirect       225224     17.79%     35.61% # Number of branches finally committed  (Count)
system.cpu.branchPred.committed_0::CallIndirect          309      0.02%     35.63% # Number of branches finally committed  (Count)
system.cpu.branchPred.committed_0::DirectCond       736193     58.16%     93.79% # Number of branches finally committed  (Count)
system.cpu.branchPred.committed_0::DirectUncond         4008      0.32%     94.11% # Number of branches finally committed  (Count)
system.cpu.branchPred.committed_0::IndirectCond            0      0.00%     94.11% # Number of branches finally committed  (Count)
system.cpu.branchPred.committed_0::IndirectUncond        74562      5.89%    100.00% # Number of branches finally committed  (Count)
system.cpu.branchPred.committed_0::total      1265825                       # Number of branches finally committed  (Count)
system.cpu.branchPred.mispredicted_0::NoBranch            0      0.00%      0.00% # Number of committed branches that were mispredicted. (Count)
system.cpu.branchPred.mispredicted_0::Return            4      0.04%      0.04% # Number of committed branches that were mispredicted. (Count)
system.cpu.branchPred.mispredicted_0::CallDirect          612      6.31%      6.35% # Number of committed branches that were mispredicted. (Count)
system.cpu.branchPred.mispredicted_0::CallIndirect          122      1.26%      7.61% # Number of committed branches that were mispredicted. (Count)
system.cpu.branchPred.mispredicted_0::DirectCond         8334     85.95%     93.56% # Number of committed branches that were mispredicted. (Count)
system.cpu.branchPred.mispredicted_0::DirectUncond          407      4.20%     97.76% # Number of committed branches that were mispredicted. (Count)
system.cpu.branchPred.mispredicted_0::IndirectCond            0      0.00%     97.76% # Number of committed branches that were mispredicted. (Count)
system.cpu.branchPred.mispredicted_0::IndirectUncond          217      2.24%    100.00% # Number of committed branches that were mispredicted. (Count)
system.cpu.branchPred.mispredicted_0::total         9696                       # Number of committed branches that were mispredicted. (Count)
system.cpu.branchPred.targetProvider_0::NoTarget       514097     38.13%     38.13% # The component providing the target for taken branches (Count)
system.cpu.branchPred.targetProvider_0::BTB       524031     38.87%     77.00% # The component providing the target for taken branches (Count)
system.cpu.branchPred.targetProvider_0::RAS       235190     17.44%     94.45% # The component providing the target for taken branches (Count)
system.cpu.branchPred.targetProvider_0::Indirect        74876      5.55%    100.00% # The component providing the target for taken branches (Count)
system.cpu.branchPred.targetProvider_0::total      1348194                       # The component providing the target for taken branches (Count)
system.cpu.branchPred.targetWrong_0::NoBranch         7846     70.74%     70.74% # Number of branches where the target was incorrect or not available at prediction time. (Count)
system.cpu.branchPred.targetWrong_0::Return         3215     28.99%     99.73% # Number of branches where the target was incorrect or not available at prediction time. (Count)
system.cpu.branchPred.targetWrong_0::CallDirect           10      0.09%     99.82% # Number of branches where the target was incorrect or not available at prediction time. (Count)
system.cpu.branchPred.targetWrong_0::CallIndirect           20      0.18%    100.00% # Number of branches where the target was incorrect or not available at prediction time. (Count)
system.cpu.branchPred.targetWrong_0::DirectCond            0      0.00%    100.00% # Number of branches where the target was incorrect or not available at prediction time. (Count)
system.cpu.branchPred.targetWrong_0::DirectUncond            0      0.00%    100.00% # Number of branches where the target was incorrect or not available at prediction time. (Count)
system.cpu.branchPred.targetWrong_0::IndirectCond            0      0.00%    100.00% # Number of branches where the target was incorrect or not available at prediction time. (Count)
system.cpu.branchPred.targetWrong_0::IndirectUncond            0      0.00%    100.00% # Number of branches where the target was incorrect or not available at prediction time. (Count)
system.cpu.branchPred.targetWrong_0::total        11091                       # Number of branches where the target was incorrect or not available at prediction time. (Count)
system.cpu.branchPred.condPredicted            798692                       # Number of conditional branches predicted (Count)
system.cpu.branchPred.condPredictedTaken       289914                       # Number of conditional branches predicted as taken (Count)
system.cpu.branchPred.condIncorrect             11375                       # Number of conditional branches incorrect (Count)
system.cpu.branchPred.predTakenBTBMiss           1632                       # Number of branches predicted taken but missed in BTB (Count)
system.cpu.branchPred.NotTakenMispredicted         8499                       # Number branches predicted 'not taken' but turned out to be taken (Count)
system.cpu.branchPred.TakenMispredicted          2876                       # Number branches predicted taken but are actually not taken (Count)
system.cpu.branchPred.BTBLookups              1348194                       # Number of BTB lookups (Count)
system.cpu.branchPred.BTBUpdates                 8118                       # Number of BTB updates (Count)
system.cpu.branchPred.BTBHits                  711879                       # Number of BTB hits (Count)
system.cpu.branchPred.BTBHitRatio            0.528024                       # BTB Hit Ratio (Ratio)
system.cpu.branchPred.BTBMispredicted            2236                       # Number BTB mispredictions. No target found or target wrong (Count)
system.cpu.branchPred.indirectLookups           76903                       # Number of indirect predictor lookups. (Count)
system.cpu.branchPred.indirectHits              74876                       # Number of indirect target hits. (Count)
system.cpu.branchPred.indirectMisses             2027                       # Number of indirect misses. (Count)
system.cpu.branchPred.indirectMispredicted            0                       # Number of mispredicted indirect branches. (Count)
system.cpu.branchPred.btb.lookups::NoBranch            0      0.00%      0.00% # Number of BTB lookups (Count)
system.cpu.branchPred.btb.lookups::Return       235199     17.45%     17.45% # Number of BTB lookups (Count)
system.cpu.branchPred.btb.lookups::CallDirect       228376     16.94%     34.38% # Number of BTB lookups (Count)
system.cpu.branchPred.btb.lookups::CallIndirect          480      0.04%     34.42% # Number of BTB lookups (Count)
system.cpu.branchPred.btb.lookups::DirectCond       798692     59.24%     93.66% # Number of BTB lookups (Count)
system.cpu.branchPred.btb.lookups::DirectUncond         9024      0.67%     94.33% # Number of BTB lookups (Count)
system.cpu.branchPred.btb.lookups::IndirectCond            0      0.00%     94.33% # Number of BTB lookups (Count)
system.cpu.branchPred.btb.lookups::IndirectUncond        76423      5.67%    100.00% # Number of BTB lookups (Count)
system.cpu.branchPred.btb.lookups::total      1348194                       # Number of BTB lookups (Count)
system.cpu.branchPred.btb.misses::NoBranch            0      0.00%      0.00% # Number of BTB misses (Count)
system.cpu.branchPred.btb.misses::Return       235127     36.95%     36.95% # Number of BTB misses (Count)
system.cpu.branchPred.btb.misses::CallDirect          785      0.12%     37.07% # Number of BTB misses (Count)
system.cpu.branchPred.btb.misses::CallIndirect          351      0.06%     37.13% # Number of BTB misses (Count)
system.cpu.branchPred.btb.misses::DirectCond       323042     50.77%     87.90% # Number of BTB misses (Count)
system.cpu.branchPred.btb.misses::DirectUncond          587      0.09%     87.99% # Number of BTB misses (Count)
system.cpu.branchPred.btb.misses::IndirectCond            0      0.00%     87.99% # Number of BTB misses (Count)
system.cpu.branchPred.btb.misses::IndirectUncond        76423     12.01%    100.00% # Number of BTB misses (Count)
system.cpu.branchPred.btb.misses::total        636315                       # Number of BTB misses (Count)
system.cpu.branchPred.btb.updates::NoBranch            0      0.00%      0.00% # Number of BTB updates (Count)
system.cpu.branchPred.btb.updates::Return            0      0.00%      0.00% # Number of BTB updates (Count)
system.cpu.branchPred.btb.updates::CallDirect          770      9.49%      9.49% # Number of BTB updates (Count)
system.cpu.branchPred.btb.updates::CallIndirect            0      0.00%      9.49% # Number of BTB updates (Count)
system.cpu.branchPred.btb.updates::DirectCond         6695     82.47%     91.96% # Number of BTB updates (Count)
system.cpu.branchPred.btb.updates::DirectUncond          653      8.04%    100.00% # Number of BTB updates (Count)
system.cpu.branchPred.btb.updates::IndirectCond            0      0.00%    100.00% # Number of BTB updates (Count)
system.cpu.branchPred.btb.updates::IndirectUncond            0      0.00%    100.00% # Number of BTB updates (Count)
system.cpu.branchPred.btb.updates::total         8118                       # Number of BTB updates (Count)
system.cpu.branchPred.btb.mispredict::NoBranch            0      0.00%      0.00% # Number of BTB mispredictions. No target found or target wrong. (Count)
system.cpu.branchPred.btb.mispredict::Return            0      0.00%      0.00% # Number of BTB mispredictions. No target found or target wrong. (Count)
system.cpu.branchPred.btb.mispredict::CallDirect          770      9.49%      9.49% # Number of BTB mispredictions. No target found or target wrong. (Count)
system.cpu.branchPred.btb.mispredict::CallIndirect            0      0.00%      9.49% # Number of BTB mispredictions. No target found or target wrong. (Count)
system.cpu.branchPred.btb.mispredict::DirectCond         6695     82.47%     91.96% # Number of BTB mispredictions. No target found or target wrong. (Count)
system.cpu.branchPred.btb.mispredict::DirectUncond          653      8.04%    100.00% # Number of BTB mispredictions. No target found or target wrong. (Count)
system.cpu.branchPred.btb.mispredict::IndirectCond            0      0.00%    100.00% # Number of BTB mispredictions. No target found or target wrong. (Count)
system.cpu.branchPred.btb.mispredict::IndirectUncond            0      0.00%    100.00% # Number of BTB mispredictions. No target found or target wrong. (Count)
system.cpu.branchPred.btb.mispredict::total         8118                       # Number of BTB mispredictions. No target found or target wrong. (Count)
system.cpu.branchPred.btb.power_state.pwrStateResidencyTicks::UNDEFINED  14130721162                       # Cumulative time (in ticks) in various power states (Tick)
system.cpu.branchPred.indirectBranchPred.lookups        76903                       # Number of lookups (Count)
system.cpu.branchPred.indirectBranchPred.hits        74876                       # Number of hits of a tag (Count)
system.cpu.branchPred.indirectBranchPred.misses         2027                       # Number of misses (Count)
system.cpu.branchPred.indirectBranchPred.targetRecords          371                       # Number of targets that where recorded/installed in the cache (Count)
system.cpu.branchPred.indirectBranchPred.indirectRecords        77274                       # Number of indirect branches/calls recorded in the indirect hist (Count)
system.cpu.branchPred.indirectBranchPred.speculativeOverflows            0                       # Number of times more than the allowed capacity for speculative branches/calls where in flight and destroy the path history (Count)
system.cpu.branchPred.ras.pushes               238526                       # Number of times a PC was pushed onto the RAS (Count)
system.cpu.branchPred.ras.pops                 238522                       # Number of times a PC was poped from the RAS (Count)
system.cpu.branchPred.ras.squashes              12993                       # Number of times the stack operation was squashed due to wrong speculation. (Count)
system.cpu.branchPred.ras.used                 225529                       # Number of times the RAS is the provider (Count)
system.cpu.branchPred.ras.correct              225525                       # Number of times the RAS is the provider and the prediction is correct (Count)
system.cpu.branchPred.ras.incorrect                 4                       # Number of times the RAS is the provider and the prediction is wrong (Count)
system.cpu.commit.commitSquashedInsts          363884                       # The number of squashed insts skipped by commit (Count)
system.cpu.commit.commitNonSpecStalls             585                       # The number of times commit has been forced to stall to communicate backwards (Count)
system.cpu.commit.branchMispredicts             10830                       # The number of times a branch was mispredicted (Count)
system.cpu.commit.numCommittedDist::samples     43267057                       # Number of insts commited each cycle (Count)
system.cpu.commit.numCommittedDist::mean     0.257663                       # Number of insts commited each cycle (Count)
system.cpu.commit.numCommittedDist::stdev     1.223573                       # Number of insts commited each cycle (Count)
system.cpu.commit.numCommittedDist::underflows            0      0.00%      0.00% # Number of insts commited each cycle (Count)
system.cpu.commit.numCommittedDist::0        40501054     93.61%     93.61% # Number of insts commited each cycle (Count)
system.cpu.commit.numCommittedDist::1          651189      1.51%     95.11% # Number of insts commited each cycle (Count)
system.cpu.commit.numCommittedDist::2          608448      1.41%     96.52% # Number of insts commited each cycle (Count)
system.cpu.commit.numCommittedDist::3          401224      0.93%     97.45% # Number of insts commited each cycle (Count)
system.cpu.commit.numCommittedDist::4           84253      0.19%     97.64% # Number of insts commited each cycle (Count)
system.cpu.commit.numCommittedDist::5           86304      0.20%     97.84% # Number of insts commited each cycle (Count)
system.cpu.commit.numCommittedDist::6           81823      0.19%     98.03% # Number of insts commited each cycle (Count)
system.cpu.commit.numCommittedDist::7            5005      0.01%     98.04% # Number of insts commited each cycle (Count)
system.cpu.commit.numCommittedDist::8          847757      1.96%    100.00% # Number of insts commited each cycle (Count)
system.cpu.commit.numCommittedDist::overflows            0      0.00%    100.00% # Number of insts commited each cycle (Count)
system.cpu.commit.numCommittedDist::min_value            0                       # Number of insts commited each cycle (Count)
system.cpu.commit.numCommittedDist::max_value            8                       # Number of insts commited each cycle (Count)
system.cpu.commit.numCommittedDist::total     43267057                       # Number of insts commited each cycle (Count)
system.cpu.commit.amos                              0                       # Number of atomic instructions committed (Count)
system.cpu.commit.membars                         306                       # Number of memory barriers committed (Count)
system.cpu.commit.functionCalls                225533                       # Number of function calls committed. (Count)
system.cpu.commit.committedInstType_0::No_OpClass         2186      0.02%      0.02% # Class of committed instruction (Count)
system.cpu.commit.committedInstType_0::IntAlu      8488733     76.14%     76.16% # Class of committed instruction (Count)
system.cpu.commit.committedInstType_0::IntMult           36      0.00%     76.16% # Class of committed instruction (Count)
system.cpu.commit.committedInstType_0::IntDiv         3422      0.03%     76.19% # Class of committed instruction (Count)
system.cpu.commit.committedInstType_0::FloatAdd          115      0.00%     76.20% # Class of committed instruction (Count)
system.cpu.commit.committedInstType_0::FloatCmp            0      0.00%     76.20% # Class of committed instruction (Count)
system.cpu.commit.committedInstType_0::FloatCvt          224      0.00%     76.20% # Class of committed instruction (Count)
system.cpu.commit.committedInstType_0::FloatMult            0      0.00%     76.20% # Class of committed instruction (Count)
system.cpu.commit.committedInstType_0::FloatMultAcc            0      0.00%     76.20% # Class of committed instruction (Count)
system.cpu.commit.committedInstType_0::FloatDiv            0      0.00%     76.20% # Class of committed instruction (Count)
system.cpu.commit.committedInstType_0::FloatMisc            0      0.00%     76.20% # Class of committed instruction (Count)
system.cpu.commit.committedInstType_0::FloatSqrt            0      0.00%     76.20% # Class of committed instruction (Count)
system.cpu.commit.committedInstType_0::SimdAdd           16      0.00%     76.20% # Class of committed instruction (Count)
system.cpu.commit.committedInstType_0::SimdAddAcc            0      0.00%     76.20% # Class of committed instruction (Count)
system.cpu.commit.committedInstType_0::SimdAlu          208      0.00%     76.20% # Class of committed instruction (Count)
system.cpu.commit.committedInstType_0::SimdCmp            0      0.00%     76.20% # Class of committed instruction (Count)
system.cpu.commit.committedInstType_0::SimdCvt          210      0.00%     76.20% # Class of committed instruction (Count)
system.cpu.commit.committedInstType_0::SimdMisc          215      0.00%     76.20% # Class of committed instruction (Count)
system.cpu.commit.committedInstType_0::SimdMult            0      0.00%     76.20% # Class of committed instruction (Count)
system.cpu.commit.committedInstType_0::SimdMultAcc            0      0.00%     76.20% # Class of committed instruction (Count)
system.cpu.commit.committedInstType_0::SimdMatMultAcc            0      0.00%     76.20% # Class of committed instruction (Count)
system.cpu.commit.committedInstType_0::SimdShift            0      0.00%     76.20% # Class of committed instruction (Count)
system.cpu.commit.committedInstType_0::SimdShiftAcc            0      0.00%     76.20% # Class of committed instruction (Count)
system.cpu.commit.committedInstType_0::SimdDiv            0      0.00%     76.20% # Class of committed instruction (Count)
system.cpu.commit.committedInstType_0::SimdSqrt            0      0.00%     76.20% # Class of committed instruction (Count)
system.cpu.commit.committedInstType_0::SimdFloatAdd            0      0.00%     76.20% # Class of committed instruction (Count)
system.cpu.commit.committedInstType_0::SimdFloatAlu            0      0.00%     76.20% # Class of committed instruction (Count)
system.cpu.commit.committedInstType_0::SimdFloatCmp            0      0.00%     76.20% # Class of committed instruction (Count)
system.cpu.commit.committedInstType_0::SimdFloatCvt            0      0.00%     76.20% # Class of committed instruction (Count)
system.cpu.commit.committedInstType_0::SimdFloatDiv            0      0.00%     76.20% # Class of committed instruction (Count)
system.cpu.commit.committedInstType_0::SimdFloatMisc            0      0.00%     76.20% # Class of committed instruction (Count)
system.cpu.commit.committedInstType_0::SimdFloatMult            0      0.00%     76.20% # Class of committed instruction (Count)
system.cpu.commit.committedInstType_0::SimdFloatMultAcc            0      0.00%     76.20% # Class of committed instruction (Count)
system.cpu.commit.committedInstType_0::SimdFloatMatMultAcc            0      0.00%     76.20% # Class of committed instruction (Count)
system.cpu.commit.committedInstType_0::SimdFloatSqrt            0      0.00%     76.20% # Class of committed instruction (Count)
system.cpu.commit.committedInstType_0::SimdReduceAdd            0      0.00%     76.20% # Class of committed instruction (Count)
system.cpu.commit.committedInstType_0::SimdReduceAlu            0      0.00%     76.20% # Class of committed instruction (Count)
system.cpu.commit.committedInstType_0::SimdReduceCmp            0      0.00%     76.20% # Class of committed instruction (Count)
system.cpu.commit.committedInstType_0::SimdFloatReduceAdd            0      0.00%     76.20% # Class of committed instruction (Count)
system.cpu.commit.committedInstType_0::SimdFloatReduceCmp            0      0.00%     76.20% # Class of committed instruction (Count)
system.cpu.commit.committedInstType_0::SimdAes            0      0.00%     76.20% # Class of committed instruction (Count)
system.cpu.commit.committedInstType_0::SimdAesMix            0      0.00%     76.20% # Class of committed instruction (Count)
system.cpu.commit.committedInstType_0::SimdSha1Hash            0      0.00%     76.20% # Class of committed instruction (Count)
system.cpu.commit.committedInstType_0::SimdSha1Hash2            0      0.00%     76.20% # Class of committed instruction (Count)
system.cpu.commit.committedInstType_0::SimdSha256Hash            0      0.00%     76.20% # Class of committed instruction (Count)
system.cpu.commit.committedInstType_0::SimdSha256Hash2            0      0.00%     76.20% # Class of committed instruction (Count)
system.cpu.commit.committedInstType_0::SimdShaSigma2            0      0.00%     76.20% # Class of committed instruction (Count)
system.cpu.commit.committedInstType_0::SimdShaSigma3            0      0.00%     76.20% # Class of committed instruction (Count)
system.cpu.commit.committedInstType_0::SimdPredAlu            0      0.00%     76.20% # Class of committed instruction (Count)
system.cpu.commit.committedInstType_0::Matrix            0      0.00%     76.20% # Class of committed instruction (Count)
system.cpu.commit.committedInstType_0::MatrixMov            0      0.00%     76.20% # Class of committed instruction (Count)
system.cpu.commit.committedInstType_0::MatrixOP            0      0.00%     76.20% # Class of committed instruction (Count)
system.cpu.commit.committedInstType_0::MemRead      1723854     15.46%     91.67% # Class of committed instruction (Count)
system.cpu.commit.committedInstType_0::MemWrite       928007      8.32%     99.99% # Class of committed instruction (Count)
system.cpu.commit.committedInstType_0::FloatMemRead          644      0.01%    100.00% # Class of committed instruction (Count)
system.cpu.commit.committedInstType_0::FloatMemWrite          448      0.00%    100.00% # Class of committed instruction (Count)
system.cpu.commit.committedInstType_0::IprAccess            0      0.00%    100.00% # Class of committed instruction (Count)
system.cpu.commit.committedInstType_0::InstPrefetch            0      0.00%    100.00% # Class of committed instruction (Count)
system.cpu.commit.committedInstType_0::SimdUnitStrideLoad            0      0.00%    100.00% # Class of committed instruction (Count)
system.cpu.commit.committedInstType_0::SimdUnitStrideStore            0      0.00%    100.00% # Class of committed instruction (Count)
system.cpu.commit.committedInstType_0::SimdUnitStrideMaskLoad            0      0.00%    100.00% # Class of committed instruction (Count)
system.cpu.commit.committedInstType_0::SimdUnitStrideMaskStore            0      0.00%    100.00% # Class of committed instruction (Count)
system.cpu.commit.committedInstType_0::SimdStridedLoad            0      0.00%    100.00% # Class of committed instruction (Count)
system.cpu.commit.committedInstType_0::SimdStridedStore            0      0.00%    100.00% # Class of committed instruction (Count)
system.cpu.commit.committedInstType_0::SimdIndexedLoad            0      0.00%    100.00% # Class of committed instruction (Count)
system.cpu.commit.committedInstType_0::SimdIndexedStore            0      0.00%    100.00% # Class of committed instruction (Count)
system.cpu.commit.committedInstType_0::SimdWholeRegisterLoad            0      0.00%    100.00% # Class of committed instruction (Count)
system.cpu.commit.committedInstType_0::SimdWholeRegisterStore            0      0.00%    100.00% # Class of committed instruction (Count)
system.cpu.commit.committedInstType_0::SimdUnitStrideFaultOnlyFirstLoad            0      0.00%    100.00% # Class of committed instruction (Count)
system.cpu.commit.committedInstType_0::SimdUnitStrideSegmentedLoad            0      0.00%    100.00% # Class of committed instruction (Count)
system.cpu.commit.committedInstType_0::SimdUnitStrideSegmentedStore            0      0.00%    100.00% # Class of committed instruction (Count)
system.cpu.commit.committedInstType_0::SimdExt            0      0.00%    100.00% # Class of committed instruction (Count)
system.cpu.commit.committedInstType_0::SimdFloatExt            0      0.00%    100.00% # Class of committed instruction (Count)
system.cpu.commit.committedInstType_0::SimdConfig            0      0.00%    100.00% # Class of committed instruction (Count)
system.cpu.commit.committedInstType_0::total     11148318                       # Class of committed instruction (Count)
system.cpu.commit.commitEligibleSamples        847757                       # number cycles where commit BW limit reached (Cycle)
system.cpu.commitStats0.numInsts              5671228                       # Number of instructions committed (thread level) (Count)
system.cpu.commitStats0.numOps               11148318                       # Number of ops (including micro ops) committed (thread level) (Count)
system.cpu.commitStats0.numInstsNotNOP        5671228                       # Number of instructions committed excluding NOPs or prefetches (Count)
system.cpu.commitStats0.numOpsNotNOP         11148318                       # Number of Ops (including micro ops) Simulated (Count)
system.cpu.commitStats0.cpi                  7.960547                       # CPI: cycles per instruction (thread level) ((Cycle/Count))
system.cpu.commitStats0.ipc                  0.125620                       # IPC: instructions per cycle (thread level) ((Count/Cycle))
system.cpu.commitStats0.numMemRefs            2652953                       # Number of memory references committed (Count)
system.cpu.commitStats0.numFpInsts               2097                       # Number of float instructions (Count)
system.cpu.commitStats0.numIntInsts          11138290                       # Number of integer instructions (Count)
system.cpu.commitStats0.numLoadInsts          1724498                       # Number of load instructions (Count)
system.cpu.commitStats0.numStoreInsts          928455                       # Number of store instructions (Count)
system.cpu.commitStats0.numVecInsts                 0                       # Number of vector instructions (Count)
system.cpu.commitStats0.committedInstType::No_OpClass         2186      0.02%      0.02% # Class of committed instruction. (Count)
system.cpu.commitStats0.committedInstType::IntAlu      8488733     76.14%     76.16% # Class of committed instruction. (Count)
system.cpu.commitStats0.committedInstType::IntMult           36      0.00%     76.16% # Class of committed instruction. (Count)
system.cpu.commitStats0.committedInstType::IntDiv         3422      0.03%     76.19% # Class of committed instruction. (Count)
system.cpu.commitStats0.committedInstType::FloatAdd          115      0.00%     76.20% # Class of committed instruction. (Count)
system.cpu.commitStats0.committedInstType::FloatCmp            0      0.00%     76.20% # Class of committed instruction. (Count)
system.cpu.commitStats0.committedInstType::FloatCvt          224      0.00%     76.20% # Class of committed instruction. (Count)
system.cpu.commitStats0.committedInstType::FloatMult            0      0.00%     76.20% # Class of committed instruction. (Count)
system.cpu.commitStats0.committedInstType::FloatMultAcc            0      0.00%     76.20% # Class of committed instruction. (Count)
system.cpu.commitStats0.committedInstType::FloatDiv            0      0.00%     76.20% # Class of committed instruction. (Count)
system.cpu.commitStats0.committedInstType::FloatMisc            0      0.00%     76.20% # Class of committed instruction. (Count)
system.cpu.commitStats0.committedInstType::FloatSqrt            0      0.00%     76.20% # Class of committed instruction. (Count)
system.cpu.commitStats0.committedInstType::SimdAdd           16      0.00%     76.20% # Class of committed instruction. (Count)
system.cpu.commitStats0.committedInstType::SimdAddAcc            0      0.00%     76.20% # Class of committed instruction. (Count)
system.cpu.commitStats0.committedInstType::SimdAlu          208      0.00%     76.20% # Class of committed instruction. (Count)
system.cpu.commitStats0.committedInstType::SimdCmp            0      0.00%     76.20% # Class of committed instruction. (Count)
system.cpu.commitStats0.committedInstType::SimdCvt          210      0.00%     76.20% # Class of committed instruction. (Count)
system.cpu.commitStats0.committedInstType::SimdMisc          215      0.00%     76.20% # Class of committed instruction. (Count)
system.cpu.commitStats0.committedInstType::SimdMult            0      0.00%     76.20% # Class of committed instruction. (Count)
system.cpu.commitStats0.committedInstType::SimdMultAcc            0      0.00%     76.20% # Class of committed instruction. (Count)
system.cpu.commitStats0.committedInstType::SimdMatMultAcc            0      0.00%     76.20% # Class of committed instruction. (Count)
system.cpu.commitStats0.committedInstType::SimdShift            0      0.00%     76.20% # Class of committed instruction. (Count)
system.cpu.commitStats0.committedInstType::SimdShiftAcc            0      0.00%     76.20% # Class of committed instruction. (Count)
system.cpu.commitStats0.committedInstType::SimdDiv            0      0.00%     76.20% # Class of committed instruction. (Count)
system.cpu.commitStats0.committedInstType::SimdSqrt            0      0.00%     76.20% # Class of committed instruction. (Count)
system.cpu.commitStats0.committedInstType::SimdFloatAdd            0      0.00%     76.20% # Class of committed instruction. (Count)
system.cpu.commitStats0.committedInstType::SimdFloatAlu            0      0.00%     76.20% # Class of committed instruction. (Count)
system.cpu.commitStats0.committedInstType::SimdFloatCmp            0      0.00%     76.20% # Class of committed instruction. (Count)
system.cpu.commitStats0.committedInstType::SimdFloatCvt            0      0.00%     76.20% # Class of committed instruction. (Count)
system.cpu.commitStats0.committedInstType::SimdFloatDiv            0      0.00%     76.20% # Class of committed instruction. (Count)
system.cpu.commitStats0.committedInstType::SimdFloatMisc            0      0.00%     76.20% # Class of committed instruction. (Count)
system.cpu.commitStats0.committedInstType::SimdFloatMult            0      0.00%     76.20% # Class of committed instruction. (Count)
system.cpu.commitStats0.committedInstType::SimdFloatMultAcc            0      0.00%     76.20% # Class of committed instruction. (Count)
system.cpu.commitStats0.committedInstType::SimdFloatMatMultAcc            0      0.00%     76.20% # Class of committed instruction. (Count)
system.cpu.commitStats0.committedInstType::SimdFloatSqrt            0      0.00%     76.20% # Class of committed instruction. (Count)
system.cpu.commitStats0.committedInstType::SimdReduceAdd            0      0.00%     76.20% # Class of committed instruction. (Count)
system.cpu.commitStats0.committedInstType::SimdReduceAlu            0      0.00%     76.20% # Class of committed instruction. (Count)
system.cpu.commitStats0.committedInstType::SimdReduceCmp            0      0.00%     76.20% # Class of committed instruction. (Count)
system.cpu.commitStats0.committedInstType::SimdFloatReduceAdd            0      0.00%     76.20% # Class of committed instruction. (Count)
system.cpu.commitStats0.committedInstType::SimdFloatReduceCmp            0      0.00%     76.20% # Class of committed instruction. (Count)
system.cpu.commitStats0.committedInstType::SimdAes            0      0.00%     76.20% # Class of committed instruction. (Count)
system.cpu.commitStats0.committedInstType::SimdAesMix            0      0.00%     76.20% # Class of committed instruction. (Count)
system.cpu.commitStats0.committedInstType::SimdSha1Hash            0      0.00%     76.20% # Class of committed instruction. (Count)
system.cpu.commitStats0.committedInstType::SimdSha1Hash2            0      0.00%     76.20% # Class of committed instruction. (Count)
system.cpu.commitStats0.committedInstType::SimdSha256Hash            0      0.00%     76.20% # Class of committed instruction. (Count)
system.cpu.commitStats0.committedInstType::SimdSha256Hash2            0      0.00%     76.20% # Class of committed instruction. (Count)
system.cpu.commitStats0.committedInstType::SimdShaSigma2            0      0.00%     76.20% # Class of committed instruction. (Count)
system.cpu.commitStats0.committedInstType::SimdShaSigma3            0      0.00%     76.20% # Class of committed instruction. (Count)
system.cpu.commitStats0.committedInstType::SimdPredAlu            0      0.00%     76.20% # Class of committed instruction. (Count)
system.cpu.commitStats0.committedInstType::Matrix            0      0.00%     76.20% # Class of committed instruction. (Count)
system.cpu.commitStats0.committedInstType::MatrixMov            0      0.00%     76.20% # Class of committed instruction. (Count)
system.cpu.commitStats0.committedInstType::MatrixOP            0      0.00%     76.20% # Class of committed instruction. (Count)
system.cpu.commitStats0.committedInstType::MemRead      1723854     15.46%     91.67% # Class of committed instruction. (Count)
system.cpu.commitStats0.committedInstType::MemWrite       928007      8.32%     99.99% # Class of committed instruction. (Count)
system.cpu.commitStats0.committedInstType::FloatMemRead          644      0.01%    100.00% # Class of committed instruction. (Count)
system.cpu.commitStats0.committedInstType::FloatMemWrite          448      0.00%    100.00% # Class of committed instruction. (Count)
system.cpu.commitStats0.committedInstType::IprAccess            0      0.00%    100.00% # Class of committed instruction. (Count)
system.cpu.commitStats0.committedInstType::InstPrefetch            0      0.00%    100.00% # Class of committed instruction. (Count)
system.cpu.commitStats0.committedInstType::SimdUnitStrideLoad            0      0.00%    100.00% # Class of committed instruction. (Count)
system.cpu.commitStats0.committedInstType::SimdUnitStrideStore            0      0.00%    100.00% # Class of committed instruction. (Count)
system.cpu.commitStats0.committedInstType::SimdUnitStrideMaskLoad            0      0.00%    100.00% # Class of committed instruction. (Count)
system.cpu.commitStats0.committedInstType::SimdUnitStrideMaskStore            0      0.00%    100.00% # Class of committed instruction. (Count)
system.cpu.commitStats0.committedInstType::SimdStridedLoad            0      0.00%    100.00% # Class of committed instruction. (Count)
system.cpu.commitStats0.committedInstType::SimdStridedStore            0      0.00%    100.00% # Class of committed instruction. (Count)
system.cpu.commitStats0.committedInstType::SimdIndexedLoad            0      0.00%    100.00% # Class of committed instruction. (Count)
system.cpu.commitStats0.committedInstType::SimdIndexedStore            0      0.00%    100.00% # Class of committed instruction. (Count)
system.cpu.commitStats0.committedInstType::SimdWholeRegisterLoad            0      0.00%    100.00% # Class of committed instruction. (Count)
system.cpu.commitStats0.committedInstType::SimdWholeRegisterStore            0      0.00%    100.00% # Class of committed instruction. (Count)
system.cpu.commitStats0.committedInstType::SimdUnitStrideFaultOnlyFirstLoad            0      0.00%    100.00% # Class of committed instruction. (Count)
system.cpu.commitStats0.committedInstType::SimdUnitStrideSegmentedLoad            0      0.00%    100.00% # Class of committed instruction. (Count)
system.cpu.commitStats0.committedInstType::SimdUnitStrideSegmentedStore            0      0.00%    100.00% # Class of committed instruction. (Count)
system.cpu.commitStats0.committedInstType::SimdExt            0      0.00%    100.00% # Class of committed instruction. (Count)
system.cpu.commitStats0.committedInstType::SimdFloatExt            0      0.00%    100.00% # Class of committed instruction. (Count)
system.cpu.commitStats0.committedInstType::SimdConfig            0      0.00%    100.00% # Class of committed instruction. (Count)
system.cpu.commitStats0.committedInstType::total     11148318                       # Class of committed instruction. (Count)
system.cpu.commitStats0.committedControl::IsControl      1265825                       # Class of control type instructions committed (Count)
system.cpu.commitStats0.committedControl::IsDirectControl       965425                       # Class of control type instructions committed (Count)
system.cpu.commitStats0.committedControl::IsIndirectControl       300400                       # Class of control type instructions committed (Count)
system.cpu.commitStats0.committedControl::IsCondControl       736193                       # Class of control type instructions committed (Count)
system.cpu.commitStats0.committedControl::IsUncondControl       529632                       # Class of control type instructions committed (Count)
system.cpu.commitStats0.committedControl::IsCall       225533                       # Class of control type instructions committed (Count)
system.cpu.commitStats0.committedControl::IsReturn       225529                       # Class of control type instructions committed (Count)
system.cpu.dcache.demandHits::cpu.data        1690373                       # number of demand (read+write) hits (Count)
system.cpu.dcache.demandHits::total           1690373                       # number of demand (read+write) hits (Count)
system.cpu.dcache.overallHits::cpu.data       1690373                       # number of overall hits (Count)
system.cpu.dcache.overallHits::total          1690373                       # number of overall hits (Count)
system.cpu.dcache.demandMisses::cpu.data        23435                       # number of demand (read+write) misses (Count)
system.cpu.dcache.demandMisses::total           23435                       # number of demand (read+write) misses (Count)
system.cpu.dcache.overallMisses::cpu.data        23435                       # number of overall misses (Count)
system.cpu.dcache.overallMisses::total          23435                       # number of overall misses (Count)
system.cpu.dcache.demandMissLatency::cpu.data   9638654374                       # number of demand (read+write) miss ticks (Tick)
system.cpu.dcache.demandMissLatency::total   9638654374                       # number of demand (read+write) miss ticks (Tick)
system.cpu.dcache.overallMissLatency::cpu.data   9638654374                       # number of overall miss ticks (Tick)
system.cpu.dcache.overallMissLatency::total   9638654374                       # number of overall miss ticks (Tick)
system.cpu.dcache.demandAccesses::cpu.data      1713808                       # number of demand (read+write) accesses (Count)
system.cpu.dcache.demandAccesses::total       1713808                       # number of demand (read+write) accesses (Count)
system.cpu.dcache.overallAccesses::cpu.data      1713808                       # number of overall (read+write) accesses (Count)
system.cpu.dcache.overallAccesses::total      1713808                       # number of overall (read+write) accesses (Count)
system.cpu.dcache.demandMissRate::cpu.data     0.013674                       # miss rate for demand accesses (Ratio)
system.cpu.dcache.demandMissRate::total      0.013674                       # miss rate for demand accesses (Ratio)
system.cpu.dcache.overallMissRate::cpu.data     0.013674                       # miss rate for overall accesses (Ratio)
system.cpu.dcache.overallMissRate::total     0.013674                       # miss rate for overall accesses (Ratio)
system.cpu.dcache.demandAvgMissLatency::cpu.data 411293.124557                       # average overall miss latency in ticks ((Tick/Count))
system.cpu.dcache.demandAvgMissLatency::total 411293.124557                       # average overall miss latency in ticks ((Tick/Count))
system.cpu.dcache.overallAvgMissLatency::cpu.data 411293.124557                       # average overall miss latency ((Tick/Count))
system.cpu.dcache.overallAvgMissLatency::total 411293.124557                       # average overall miss latency ((Tick/Count))
system.cpu.dcache.blockedCycles::no_mshrs       746212                       # number of cycles access was blocked (Cycle)
system.cpu.dcache.blockedCycles::no_targets        18472                       # number of cycles access was blocked (Cycle)
system.cpu.dcache.blockedCauses::no_mshrs          755                       # number of times access was blocked (Count)
system.cpu.dcache.blockedCauses::no_targets           33                       # number of times access was blocked (Count)
system.cpu.dcache.avgBlocked::no_mshrs     988.360265                       # average number of cycles each access was blocked ((Cycle/Count))
system.cpu.dcache.avgBlocked::no_targets   559.757576                       # average number of cycles each access was blocked ((Cycle/Count))
system.cpu.dcache.writebacks::writebacks         1971                       # number of writebacks (Count)
system.cpu.dcache.writebacks::total              1971                       # number of writebacks (Count)
system.cpu.dcache.demandMshrHits::cpu.data        16881                       # number of demand (read+write) MSHR hits (Count)
system.cpu.dcache.demandMshrHits::total         16881                       # number of demand (read+write) MSHR hits (Count)
system.cpu.dcache.overallMshrHits::cpu.data        16881                       # number of overall MSHR hits (Count)
[...]
system.l2.ReadSharedReq.avgMissLatency::cpu.data 684630.984844                       # average ReadSharedReq miss latency ((Tick/Count))
system.l2.ReadSharedReq.avgMissLatency::total 684630.984844                       # average ReadSharedReq miss latency ((Tick/Count))
system.l2.ReadSharedReq.mshrHits::cpu.data            1                       # number of ReadSharedReq MSHR hits (Count)
system.l2.ReadSharedReq.mshrHits::total             1                       # number of ReadSharedReq MSHR hits (Count)
system.l2.ReadSharedReq.mshrMisses::cpu.data         3430                       # number of ReadSharedReq MSHR misses (Count)
system.l2.ReadSharedReq.mshrMisses::total         3430                       # number of ReadSharedReq MSHR misses (Count)
system.l2.ReadSharedReq.mshrMissLatency::cpu.data   2326627566                       # number of ReadSharedReq MSHR miss ticks (Tick)
system.l2.ReadSharedReq.mshrMissLatency::total   2326627566                       # number of ReadSharedReq MSHR miss ticks (Tick)
system.l2.ReadSharedReq.mshrMissRate::cpu.data     0.650977                       # mshr miss rate for ReadSharedReq accesses (Ratio)
system.l2.ReadSharedReq.mshrMissRate::total     0.650977                       # mshr miss rate for ReadSharedReq accesses (Ratio)
system.l2.ReadSharedReq.avgMshrMissLatency::cpu.data 678317.074636                       # average ReadSharedReq mshr miss latency ((Tick/Count))
system.l2.ReadSharedReq.avgMshrMissLatency::total 678317.074636                       # average ReadSharedReq mshr miss latency ((Tick/Count))
system.l2.UpgradeReq.hits::cpu.data                 2                       # number of UpgradeReq hits (Count)
system.l2.UpgradeReq.hits::total                    2                       # number of UpgradeReq hits (Count)
system.l2.UpgradeReq.accesses::cpu.data             2                       # number of UpgradeReq accesses(hits+misses) (Count)
system.l2.UpgradeReq.accesses::total                2                       # number of UpgradeReq accesses(hits+misses) (Count)
system.l2.WriteReq.mshrUncacheable::cpu.data        73732                       # number of WriteReq MSHR uncacheable (Count)
system.l2.WriteReq.mshrUncacheable::total        73732                       # number of WriteReq MSHR uncacheable (Count)
system.l2.WritebackClean.hits::writebacks         1200                       # number of WritebackClean hits (Count)
system.l2.WritebackClean.hits::total             1200                       # number of WritebackClean hits (Count)
system.l2.WritebackClean.accesses::writebacks         1200                       # number of WritebackClean accesses(hits+misses) (Count)
system.l2.WritebackClean.accesses::total         1200                       # number of WritebackClean accesses(hits+misses) (Count)
system.l2.WritebackDirty.hits::writebacks         1971                       # number of WritebackDirty hits (Count)
system.l2.WritebackDirty.hits::total             1971                       # number of WritebackDirty hits (Count)
system.l2.WritebackDirty.accesses::writebacks         1971                       # number of WritebackDirty accesses(hits+misses) (Count)
system.l2.WritebackDirty.accesses::total         1971                       # number of WritebackDirty accesses(hits+misses) (Count)
system.l2.power_state.pwrStateResidencyTicks::UNDEFINED  14130721162                       # Cumulative time (in ticks) in various power states (Tick)
system.l2.tags.tagsInUse                  5504.608944                       # Average ticks per tags in use ((Tick/Count))
system.l2.tags.totalRefs                        15504                       # Total number of references to valid blocks. (Count)
system.l2.tags.sampledRefs                       6220                       # Sample count of references to valid blocks. (Count)
system.l2.tags.avgRefs                       2.492605                       # Average number of references to valid blocks. ((Count/Count))
system.l2.tags.warmupTick                      430000                       # The tick when the warmup percentage was hit. (Tick)
system.l2.tags.occupancies::cpu.inst      1292.630693                       # Average occupied blocks per tick, per requestor ((Count/Tick))
system.l2.tags.occupancies::cpu.data      4211.978251                       # Average occupied blocks per tick, per requestor ((Count/Tick))
system.l2.tags.avgOccs::cpu.inst             0.039448                       # Average percentage of cache occupancy ((Ratio/Tick))
system.l2.tags.avgOccs::cpu.data             0.128539                       # Average percentage of cache occupancy ((Ratio/Tick))
system.l2.tags.avgOccs::total                0.167987                       # Average percentage of cache occupancy ((Ratio/Tick))
system.l2.tags.occupanciesTaskId::1024           6220                       # Occupied blocks per task id (Count)
system.l2.tags.ageTaskId_1024::0                   30                       # Occupied blocks per task id, per block age (Count)
system.l2.tags.ageTaskId_1024::1                  217                       # Occupied blocks per task id, per block age (Count)
system.l2.tags.ageTaskId_1024::2                    1                       # Occupied blocks per task id, per block age (Count)
system.l2.tags.ageTaskId_1024::4                 5972                       # Occupied blocks per task id, per block age (Count)
system.l2.tags.ratioOccsTaskId::1024         0.189819                       # Ratio of occupied blocks and all blocks, per task id (Ratio)
system.l2.tags.tagAccesses                     130276                       # Number of tag accesses (Count)
system.l2.tags.dataAccesses                    130276                       # Number of data accesses (Count)
system.l2.tags.power_state.pwrStateResidencyTicks::UNDEFINED  14130721162                       # Cumulative time (in ticks) in various power states (Tick)
system.mem_ctrls.bytesRead::cpu.inst           103744                       # Number of bytes read from this memory (Byte)
system.mem_ctrls.bytesRead::cpu.data           294378                       # Number of bytes read from this memory (Byte)
system.mem_ctrls.bytesRead::total              398122                       # Number of bytes read from this memory (Byte)
system.mem_ctrls.bytesInstRead::cpu.inst       103744                       # Number of instructions bytes read from this memory (Byte)
system.mem_ctrls.bytesInstRead::total          103744                       # Number of instructions bytes read from this memory (Byte)
system.mem_ctrls.bytesWritten::cpu.data         73760                       # Number of bytes written to this memory (Byte)
system.mem_ctrls.bytesWritten::total            73760                       # Number of bytes written to this memory (Byte)
system.mem_ctrls.numReads::cpu.inst              1621                       # Number of read requests responded to by this memory (Count)
system.mem_ctrls.numReads::cpu.data              4606                       # Number of read requests responded to by this memory (Count)
system.mem_ctrls.numReads::total                 6227                       # Number of read requests responded to by this memory (Count)
system.mem_ctrls.numWrites::cpu.data            73732                       # Number of write requests responded to by this memory (Count)
system.mem_ctrls.numWrites::total               73732                       # Number of write requests responded to by this memory (Count)
system.mem_ctrls.bwRead::cpu.inst             7341734                       # Total read bandwidth from this memory ((Byte/Second))
system.mem_ctrls.bwRead::cpu.data            20832482                       # Total read bandwidth from this memory ((Byte/Second))
system.mem_ctrls.bwRead::total               28174217                       # Total read bandwidth from this memory ((Byte/Second))
system.mem_ctrls.bwInstRead::cpu.inst         7341734                       # Instruction read bandwidth from this memory ((Byte/Second))
system.mem_ctrls.bwInstRead::total            7341734                       # Instruction read bandwidth from this memory ((Byte/Second))
system.mem_ctrls.bwWrite::cpu.data            5219833                       # Write bandwidth from this memory ((Byte/Second))
system.mem_ctrls.bwWrite::total               5219833                       # Write bandwidth from this memory ((Byte/Second))
system.mem_ctrls.bwTotal::cpu.inst            7341734                       # Total bandwidth to/from this memory ((Byte/Second))
system.mem_ctrls.bwTotal::cpu.data           26052315                       # Total bandwidth to/from this memory ((Byte/Second))
system.mem_ctrls.bwTotal::total              33394049                       # Total bandwidth to/from this memory ((Byte/Second))
system.mem_ctrls.power_state.pwrStateResidencyTicks::UNDEFINED  14130721162                       # Cumulative time (in ticks) in various power states (Tick)
system.membus.transDist::ReadReq                    7                       # Transaction distribution (Count)
system.membus.transDist::ReadResp                5058                       # Transaction distribution (Count)
system.membus.transDist::WriteReq               73732                       # Transaction distribution (Count)
system.membus.transDist::WriteResp              73732                       # Transaction distribution (Count)
system.membus.transDist::ReadExReq               1169                       # Transaction distribution (Count)
system.membus.transDist::ReadExResp              1169                       # Transaction distribution (Count)
system.membus.transDist::ReadSharedReq           5051                       # Transaction distribution (Count)
system.membus.pktCount_system.l2.mem_side_port::system.mem_ctrls.port       159918                       # Packet count per connected requestor and responder (Count)
system.membus.pktCount_system.l2.mem_side_port::total       159918                       # Packet count per connected requestor and responder (Count)
system.membus.pktCount::total                  159918                       # Packet count per connected requestor and responder (Count)
system.membus.pktSize_system.l2.mem_side_port::system.mem_ctrls.port       471882                       # Cumulative packet size per connected requestor and responder (Byte)
system.membus.pktSize_system.l2.mem_side_port::total       471882                       # Cumulative packet size per connected requestor and responder (Byte)
system.membus.pktSize::total                   471882                       # Cumulative packet size per connected requestor and responder (Byte)
system.membus.snoops                                0                       # Total snoops (Count)
system.membus.snoopTraffic                          0                       # Total snoop traffic (Byte)
system.membus.snoopFanout::samples             153646                       # Request fanout histogram (Count)
system.membus.snoopFanout::mean                     0                       # Request fanout histogram (Count)
system.membus.snoopFanout::stdev                    0                       # Request fanout histogram (Count)
system.membus.snoopFanout::underflows               0      0.00%      0.00% # Request fanout histogram (Count)
system.membus.snoopFanout::0                   153646    100.00%    100.00% # Request fanout histogram (Count)
system.membus.snoopFanout::1                        0      0.00%    100.00% # Request fanout histogram (Count)
system.membus.snoopFanout::overflows                0      0.00%    100.00% # Request fanout histogram (Count)
system.membus.snoopFanout::min_value                0                       # Request fanout histogram (Count)
system.membus.snoopFanout::max_value                0                       # Request fanout histogram (Count)
system.membus.snoopFanout::total               153646                       # Request fanout histogram (Count)
system.membus.power_state.pwrStateResidencyTicks::UNDEFINED  14130721162                       # Cumulative time (in ticks) in various power states (Tick)
system.membus.reqLayer2.occupancy           676969780                       # Layer occupancy (ticks) (Tick)
system.membus.reqLayer2.utilization               0.0                       # Layer utilization (Ratio)
system.membus.respLayer1.occupancy          317626847                       # Layer occupancy (ticks) (Tick)
system.membus.respLayer1.utilization              0.0                       # Layer utilization (Ratio)
system.membus.snoop_filter.totRequests           6222                       # Total number of requests made to the snoop filter. (Count)
system.membus.snoop_filter.hitSingleRequests            0                       # Number of requests hitting in the snoop filter with a single holder of the requested data. (Count)
system.membus.snoop_filter.hitMultiRequests            0                       # Number of requests hitting in the snoop filter with multiple (>1) holders of the requested data. (Count)
system.membus.snoop_filter.totSnoops                0                       # Total number of snoops made to the snoop filter. (Count)
system.membus.snoop_filter.hitSingleSnoops            0                       # Number of snoops hitting in the snoop filter with a single holder of the requested data. (Count)
system.membus.snoop_filter.hitMultiSnoops            0                       # Number of snoops hitting in the snoop filter with multiple (>1) holders of the requested data. (Count)
system.tol2bus.transDist::ReadReq                   7                       # Transaction distribution (Count)
system.tol2bus.transDist::ReadResp               6992                       # Transaction distribution (Count)
system.tol2bus.transDist::WriteReq              73732                       # Transaction distribution (Count)
system.tol2bus.transDist::WriteResp             73732                       # Transaction distribution (Count)
system.tol2bus.transDist::WritebackDirty         1971                       # Transaction distribution (Count)
system.tol2bus.transDist::WritebackClean         1203                       # Transaction distribution (Count)
system.tol2bus.transDist::CleanEvict             4070                       # Transaction distribution (Count)
system.tol2bus.transDist::UpgradeReq                2                       # Transaction distribution (Count)
system.tol2bus.transDist::UpgradeResp               2                       # Transaction distribution (Count)
system.tol2bus.transDist::ReadExReq              1284                       # Transaction distribution (Count)
system.tol2bus.transDist::ReadExResp             1284                       # Transaction distribution (Count)
system.tol2bus.transDist::ReadCleanReq           1717                       # Transaction distribution (Count)
system.tol2bus.transDist::ReadSharedReq          5269                       # Transaction distribution (Count)
system.tol2bus.pktCount_system.cpu.icache.mem_side_port::system.l2.cpu_side_port         4632                       # Packet count per connected requestor and responder (Count)
system.tol2bus.pktCount_system.cpu.dcache.mem_side_port::system.l2.cpu_side_port       166629                       # Packet count per connected requestor and responder (Count)
system.tol2bus.pktCount::total                 171261                       # Packet count per connected requestor and responder (Count)
system.tol2bus.pktSize_system.cpu.icache.mem_side_port::system.l2.cpu_side_port       186560                       # Cumulative packet size per connected requestor and responder (Byte)
system.tol2bus.pktSize_system.cpu.dcache.mem_side_port::system.l2.cpu_side_port       619338                       # Cumulative packet size per connected requestor and responder (Byte)
system.tol2bus.pktSize::total                  805898                       # Cumulative packet size per connected requestor and responder (Byte)
system.tol2bus.snoops                               4                       # Total snoops (Count)
system.tol2bus.snoopTraffic                       256                       # Total snoop traffic (Byte)
system.tol2bus.snoopFanout::samples             82011                       # Request fanout histogram (Count)
system.tol2bus.snoopFanout::mean             0.000159                       # Request fanout histogram (Count)
system.tol2bus.snoopFanout::stdev            0.012589                       # Request fanout histogram (Count)
system.tol2bus.snoopFanout::underflows              0      0.00%      0.00% # Request fanout histogram (Count)
system.tol2bus.snoopFanout::0                   81998     99.98%     99.98% # Request fanout histogram (Count)
system.tol2bus.snoopFanout::1                      13      0.02%    100.00% # Request fanout histogram (Count)
system.tol2bus.snoopFanout::2                       0      0.00%    100.00% # Request fanout histogram (Count)
system.tol2bus.snoopFanout::3                       0      0.00%    100.00% # Request fanout histogram (Count)
system.tol2bus.snoopFanout::4                       0      0.00%    100.00% # Request fanout histogram (Count)
system.tol2bus.snoopFanout::overflows               0      0.00%    100.00% # Request fanout histogram (Count)
system.tol2bus.snoopFanout::min_value               0                       # Request fanout histogram (Count)
system.tol2bus.snoopFanout::max_value               1                       # Request fanout histogram (Count)
system.tol2bus.snoopFanout::total               82011                       # Request fanout histogram (Count)
system.tol2bus.power_state.pwrStateResidencyTicks::UNDEFINED  14130721162                       # Cumulative time (in ticks) in various power states (Tick)
system.tol2bus.reqLayer0.occupancy           53001855                       # Layer occupancy (ticks) (Tick)
system.tol2bus.reqLayer0.utilization              0.0                       # Layer utilization (Ratio)
system.tol2bus.respLayer0.occupancy           1611636                       # Layer occupancy (ticks) (Tick)
system.tol2bus.respLayer0.utilization             0.0                       # Layer utilization (Ratio)
system.tol2bus.respLayer1.occupancy          29236731                       # Layer occupancy (ticks) (Tick)
system.tol2bus.respLayer1.utilization             0.0                       # Layer utilization (Ratio)
system.tol2bus.snoop_filter.totRequests         15516                       # Total number of requests made to the snoop filter. (Count)
system.tol2bus.snoop_filter.hitSingleRequests         7248                       # Number of requests hitting in the snoop filter with a single holder of the requested data. (Count)
system.tol2bus.snoop_filter.hitMultiRequests            9                       # Number of requests hitting in the snoop filter with multiple (>1) holders of the requested data. (Count)
system.tol2bus.snoop_filter.totSnoops               0                       # Total number of snoops made to the snoop filter. (Count)
system.tol2bus.snoop_filter.hitSingleSnoops            0                       # Number of snoops hitting in the snoop filter with a single holder of the requested data. (Count)
system.tol2bus.snoop_filter.hitMultiSnoops            0                       # Number of snoops hitting in the snoop filter with multiple (>1) holders of the requested data. (Count)
system.voltage_domain.voltage                       1                       # Voltage in Volts (Volt)
system.workload.inst.arm                            0                       # number of arm instructions executed (Count)
system.workload.inst.quiesce                        0                       # number of quiesce instructions executed (Count)

---------- End Simulation Statistics   ----------
