
---------- Begin Simulation Statistics ----------
simSeconds                                   0.474673                       # Number of seconds simulated (Second)
simTicks                                 474672981048                       # Number of ticks simulated (Tick)
finalTick                                474672981048                       # Number of ticks from beginning of simulation (restored from checkpoints and never reset) (Tick)
simFreq                                  1000000000000                       # The number of ticks per simulated second ((Tick/Second))
hostSeconds                                   4109.64                       # Real time elapsed on the host (Second)
hostTickRate                                115502201                       # The number of ticks simulated per host second (ticks/s) ((Tick/Second))
hostMemory                                    1387024                       # Number of bytes of host memory used (Byte)
simInsts                                    900344644                       # Number of instructions simulated (Count)
simOps                                     1505014772                       # Number of ops (including micro ops) simulated (Count)
hostInstRate                                   219081                       # Simulator instruction rate (inst/s) ((Count/Second))
hostOpRate                                     366215                       # Simulator op (including micro ops) rate (op/s) ((Count/Second))
system.clk_domain.clock                          2500                       # Clock period in ticks (Tick)
system.cpu.numCycles                       1516527097                       # Number of cpu cycles simulated (Cycle)
system.cpu.cpi                               1.684385                       # CPI: cycles per instruction (core level) ((Cycle/Count))
system.cpu.ipc                               0.593688                       # IPC: instructions per cycle (core level) ((Count/Cycle))
system.cpu.numWorkItemsStarted                      0                       # Number of work items this cpu started (Count)
system.cpu.numWorkItemsCompleted                    0                       # Number of work items this cpu completed (Count)
system.cpu.instsAdded                      1508427824                       # Number of instructions added to the IQ (excludes non-spec) (Count)
system.cpu.nonSpecInstsAdded                     3497                       # Number of non-speculative instructions added to the IQ (Count)
system.cpu.instsIssued                     1507420656                       # Number of instructions issued (Count)
system.cpu.squashedInstsIssued                   4793                       # Number of squashed instructions issued (Count)
system.cpu.squashedInstsExamined              3416543                       # Number of squashed instructions iterated over during squash; mainly for profiling (Count)
system.cpu.squashedOperandsExamined           4824874                       # Number of squashed operands that are examined and possibly removed from graph (Count)
system.cpu.squashedNonSpecRemoved                1376                       # Number of squashed non-spec instructions that were removed (Count)
system.cpu.numIssuedDist::samples          1512316534                       # Number of insts issued each cycle (Count)
system.cpu.numIssuedDist::mean               0.996763                       # Number of insts issued each cycle (Count)
system.cpu.numIssuedDist::stdev              1.712891                       # Number of insts issued each cycle (Count)
system.cpu.numIssuedDist::underflows                0      0.00%      0.00% # Number of insts issued each cycle (Count)
system.cpu.numIssuedDist::0                 996214534     65.87%     65.87% # Number of insts issued each cycle (Count)
system.cpu.numIssuedDist::1                 141442326      9.35%     75.23% # Number of insts issued each cycle (Count)
system.cpu.numIssuedDist::2                 108721737      7.19%     82.42% # Number of insts issued each cycle (Count)
system.cpu.numIssuedDist::3                  83275556      5.51%     87.92% # Number of insts issued each cycle (Count)
system.cpu.numIssuedDist::4                  80759324      5.34%     93.26% # Number of insts issued each cycle (Count)
system.cpu.numIssuedDist::5                  54305415      3.59%     96.85% # Number of insts issued each cycle (Count)
system.cpu.numIssuedDist::6                  33694491      2.23%     99.08% # Number of insts issued each cycle (Count)
system.cpu.numIssuedDist::7                   9248337      0.61%     99.69% # Number of insts issued each cycle (Count)
system.cpu.numIssuedDist::8                   4654814      0.31%    100.00% # Number of insts issued each cycle (Count)
system.cpu.numIssuedDist::overflows                 0      0.00%    100.00% # Number of insts issued each cycle (Count)
system.cpu.numIssuedDist::min_value                 0                       # Number of insts issued each cycle (Count)
system.cpu.numIssuedDist::max_value                 8                       # Number of insts issued each cycle (Count)
system.cpu.numIssuedDist::total            1512316534                       # Number of insts issued each cycle (Count)
system.cpu.statFuBusy::No_OpClass                   0      0.00%      0.00% # attempts to use FU when none available (Count)
system.cpu.statFuBusy::IntAlu                 1013310      8.71%      8.71% # attempts to use FU when none available (Count)
system.cpu.statFuBusy::IntMult                      0      0.00%      8.71% # attempts to use FU when none available (Count)
system.cpu.statFuBusy::IntDiv                       0      0.00%      8.71% # attempts to use FU when none available (Count)
system.cpu.statFuBusy::FloatAdd                     0      0.00%      8.71% # attempts to use FU when none available (Count)
system.cpu.statFuBusy::FloatCmp                     0      0.00%      8.71% # attempts to use FU when none available (Count)
system.cpu.statFuBusy::FloatCvt                     0      0.00%      8.71% # attempts to use FU when none available (Count)
system.cpu.statFuBusy::FloatMult                    0      0.00%      8.71% # attempts to use FU when none available (Count)
system.cpu.statFuBusy::FloatMultAcc                 0      0.00%      8.71% # attempts to use FU when none available (Count)
system.cpu.statFuBusy::FloatDiv                     0      0.00%      8.71% # attempts to use FU when none available (Count)
system.cpu.statFuBusy::FloatMisc                    0      0.00%      8.71% # attempts to use FU when none available (Count)
system.cpu.statFuBusy::FloatSqrt                    0      0.00%      8.71% # attempts to use FU when none available (Count)
system.cpu.statFuBusy::SimdAdd                      0      0.00%      8.71% # attempts to use FU when none available (Count)
system.cpu.statFuBusy::SimdAddAcc                   0      0.00%      8.71% # attempts to use FU when none available (Count)
system.cpu.statFuBusy::SimdAlu                    311      0.00%      8.71% # attempts to use FU when none available (Count)
system.cpu.statFuBusy::SimdCmp                      0      0.00%      8.71% # attempts to use FU when none available (Count)
system.cpu.statFuBusy::SimdCvt                      0      0.00%      8.71% # attempts to use FU when none available (Count)
system.cpu.statFuBusy::SimdMisc                     0      0.00%      8.71% # attempts to use FU when none available (Count)
system.cpu.statFuBusy::SimdMult                     0      0.00%      8.71% # attempts to use FU when none available (Count)
system.cpu.statFuBusy::SimdMultAcc                  0      0.00%      8.71% # attempts to use FU when none available (Count)
system.cpu.statFuBusy::SimdMatMultAcc               0      0.00%      8.71% # attempts to use FU when none available (Count)
system.cpu.statFuBusy::SimdShift                    0      0.00%      8.71% # attempts to use FU when none available (Count)
system.cpu.statFuBusy::SimdShiftAcc                 0      0.00%      8.71% # attempts to use FU when none available (Count)
system.cpu.statFuBusy::SimdDiv                      0      0.00%      8.71% # attempts to use FU when none available (Count)
system.cpu.statFuBusy::SimdSqrt                     0      0.00%      8.71% # attempts to use FU when none available (Count)
system.cpu.statFuBusy::SimdFloatAdd                 0      0.00%      8.71% # attempts to use FU when none available (Count)
system.cpu.statFuBusy::SimdFloatAlu                 0      0.00%      8.71% # attempts to use FU when none available (Count)
system.cpu.statFuBusy::SimdFloatCmp                 0      0.00%      8.71% # attempts to use FU when none available (Count)
system.cpu.statFuBusy::SimdFloatCvt                 0      0.00%      8.71% # attempts to use FU when none available (Count)
system.cpu.statFuBusy::SimdFloatDiv                 0      0.00%      8.71% # attempts to use FU when none available (Count)
system.cpu.statFuBusy::SimdFloatMisc                0      0.00%      8.71% # attempts to use FU when none available (Count)
system.cpu.statFuBusy::SimdFloatMult                0      0.00%      8.71% # attempts to use FU when none available (Count)
system.cpu.statFuBusy::SimdFloatMultAcc             0      0.00%      8.71% # attempts to use FU when none available (Count)
system.cpu.statFuBusy::SimdFloatMatMultAcc            0      0.00%      8.71% # attempts to use FU when none available (Count)
system.cpu.statFuBusy::SimdFloatSqrt                0      0.00%      8.71% # attempts to use FU when none available (Count)
system.cpu.statFuBusy::SimdReduceAdd                0      0.00%      8.71% # attempts to use FU when none available (Count)
system.cpu.statFuBusy::SimdReduceAlu                0      0.00%      8.71% # attempts to use FU when none available (Count)
system.cpu.statFuBusy::SimdReduceCmp                0      0.00%      8.71% # attempts to use FU when none available (Count)
system.cpu.statFuBusy::SimdFloatReduceAdd            0      0.00%      8.71% # attempts to use FU when none available (Count)
system.cpu.statFuBusy::SimdFloatReduceCmp            0      0.00%      8.71% # attempts to use FU when none available (Count)
system.cpu.statFuBusy::SimdAes                      0      0.00%      8.71% # attempts to use FU when none available (Count)
system.cpu.statFuBusy::SimdAesMix                   0      0.00%      8.71% # attempts to use FU when none available (Count)
system.cpu.statFuBusy::SimdSha1Hash                 0      0.00%      8.71% # attempts to use FU when none available (Count)
system.cpu.statFuBusy::SimdSha1Hash2                0      0.00%      8.71% # attempts to use FU when none available (Count)
system.cpu.statFuBusy::SimdSha256Hash               0      0.00%      8.71% # attempts to use FU when none available (Count)
system.cpu.statFuBusy::SimdSha256Hash2              0      0.00%      8.71% # attempts to use FU when none available (Count)
system.cpu.statFuBusy::SimdShaSigma2                0      0.00%      8.71% # attempts to use FU when none available (Count)
system.cpu.statFuBusy::SimdShaSigma3                0      0.00%      8.71% # attempts to use FU when none available (Count)
system.cpu.statFuBusy::SimdPredAlu                  0      0.00%      8.71% # attempts to use FU when none available (Count)
system.cpu.statFuBusy::Matrix                       0      0.00%      8.71% # attempts to use FU when none available (Count)
system.cpu.statFuBusy::MatrixMov                    0      0.00%      8.71% # attempts to use FU when none available (Count)
system.cpu.statFuBusy::MatrixOP                     0      0.00%      8.71% # attempts to use FU when none available (Count)
system.cpu.statFuBusy::MemRead                7590829     65.26%     73.97% # attempts to use FU when none available (Count)
system.cpu.statFuBusy::MemWrite               3027585     26.03%    100.00% # attempts to use FU when none available (Count)
system.cpu.statFuBusy::FloatMemRead               346      0.00%    100.00% # attempts to use FU when none available (Count)
system.cpu.statFuBusy::FloatMemWrite              133      0.00%    100.00% # attempts to use FU when none available (Count)
system.cpu.statFuBusy::IprAccess                    0      0.00%    100.00% # attempts to use FU when none available (Count)
system.cpu.statFuBusy::InstPrefetch                 0      0.00%    100.00% # attempts to use FU when none available (Count)
system.cpu.statFuBusy::SimdUnitStrideLoad            0      0.00%    100.00% # attempts to use FU when none available (Count)
system.cpu.statFuBusy::SimdUnitStrideStore            0      0.00%    100.00% # attempts to use FU when none available (Count)
system.cpu.statFuBusy::SimdUnitStrideMaskLoad            0      0.00%    100.00% # attempts to use FU when none available (Count)
system.cpu.statFuBusy::SimdUnitStrideMaskStore            0      0.00%    100.00% # attempts to use FU when none available (Count)
system.cpu.statFuBusy::SimdStridedLoad              0      0.00%    100.00% # attempts to use FU when none available (Count)
system.cpu.statFuBusy::SimdStridedStore             0      0.00%    100.00% # attempts to use FU when none available (Count)
system.cpu.statFuBusy::SimdIndexedLoad              0      0.00%    100.00% # attempts to use FU when none available (Count)
system.cpu.statFuBusy::SimdIndexedStore             0      0.00%    100.00% # attempts to use FU when none available (Count)
system.cpu.statFuBusy::SimdWholeRegisterLoad            0      0.00%    100.00% # attempts to use FU when none available (Count)
system.cpu.statFuBusy::SimdWholeRegisterStore            0      0.00%    100.00% # attempts to use FU when none available (Count)
system.cpu.statFuBusy::SimdUnitStrideFaultOnlyFirstLoad            0      0.00%    100.00% # attempts to use FU when none available (Count)
system.cpu.statFuBusy::SimdUnitStrideSegmentedLoad            0      0.00%    100.00% # attempts to use FU when none available (Count)
system.cpu.statFuBusy::SimdUnitStrideSegmentedStore            0      0.00%    100.00% # attempts to use FU when none available (Count)
system.cpu.statFuBusy::SimdExt                      0      0.00%    100.00% # attempts to use FU when none available (Count)
system.cpu.statFuBusy::SimdFloatExt                 0      0.00%    100.00% # attempts to use FU when none available (Count)
system.cpu.statFuBusy::SimdConfig                   0      0.00%    100.00% # attempts to use FU when none available (Count)
system.cpu.statIssuedInstType_0::No_OpClass        32628      0.00%      0.00% # Number of instructions issued per FU type, per thread (Count)
system.cpu.statIssuedInstType_0::IntAlu     887781896     58.89%     58.90% # Number of instructions issued per FU type, per thread (Count)
system.cpu.statIssuedInstType_0::IntMult      5384784      0.36%     59.25% # Number of instructions issued per FU type, per thread (Count)
system.cpu.statIssuedInstType_0::IntDiv          4375      0.00%     59.25% # Number of instructions issued per FU type, per thread (Count)
system.cpu.statIssuedInstType_0::FloatAdd     29453041      1.95%     61.21% # Number of instructions issued per FU type, per thread (Count)
system.cpu.statIssuedInstType_0::FloatCmp            0      0.00%     61.21% # Number of instructions issued per FU type, per thread (Count)
system.cpu.statIssuedInstType_0::FloatCvt          540      0.00%     61.21% # Number of instructions issued per FU type, per thread (Count)
system.cpu.statIssuedInstType_0::FloatMult            0      0.00%     61.21% # Number of instructions issued per FU type, per thread (Count)
system.cpu.statIssuedInstType_0::FloatMultAcc            0      0.00%     61.21% # Number of instructions issued per FU type, per thread (Count)
system.cpu.statIssuedInstType_0::FloatDiv            0      0.00%     61.21% # Number of instructions issued per FU type, per thread (Count)
system.cpu.statIssuedInstType_0::FloatMisc            0      0.00%     61.21% # Number of instructions issued per FU type, per thread (Count)
system.cpu.statIssuedInstType_0::FloatSqrt            0      0.00%     61.21% # Number of instructions issued per FU type, per thread (Count)
system.cpu.statIssuedInstType_0::SimdAdd           20      0.00%     61.21% # Number of instructions issued per FU type, per thread (Count)
system.cpu.statIssuedInstType_0::SimdAddAcc            0      0.00%     61.21% # Number of instructions issued per FU type, per thread (Count)
system.cpu.statIssuedInstType_0::SimdAlu     10149266      0.67%     61.88% # Number of instructions issued per FU type, per thread (Count)
system.cpu.statIssuedInstType_0::SimdCmp            0      0.00%     61.88% # Number of instructions issued per FU type, per thread (Count)
system.cpu.statIssuedInstType_0::SimdCvt          303      0.00%     61.88% # Number of instructions issued per FU type, per thread (Count)
system.cpu.statIssuedInstType_0::SimdMisc      9825637      0.65%     62.53% # Number of instructions issued per FU type, per thread (Count)
system.cpu.statIssuedInstType_0::SimdMult            0      0.00%     62.53% # Number of instructions issued per FU type, per thread (Count)
system.cpu.statIssuedInstType_0::SimdMultAcc            0      0.00%     62.53% # Number of instructions issued per FU type, per thread (Count)
system.cpu.statIssuedInstType_0::SimdMatMultAcc            0      0.00%     62.53% # Number of instructions issued per FU type, per thread (Count)
system.cpu.statIssuedInstType_0::SimdShift            0      0.00%     62.53% # Number of instructions issued per FU type, per thread (Count)
system.cpu.statIssuedInstType_0::SimdShiftAcc            0      0.00%     62.53% # Number of instructions issued per FU type, per thread (Count)
system.cpu.statIssuedInstType_0::SimdDiv            0      0.00%     62.53% # Number of instructions issued per FU type, per thread (Count)
system.cpu.statIssuedInstType_0::SimdSqrt            0      0.00%     62.53% # Number of instructions issued per FU type, per thread (Count)
system.cpu.statIssuedInstType_0::SimdFloatAdd      5051663      0.34%     62.87% # Number of instructions issued per FU type, per thread (Count)
system.cpu.statIssuedInstType_0::SimdFloatAlu            0      0.00%     62.87% # Number of instructions issued per FU type, per thread (Count)
system.cpu.statIssuedInstType_0::SimdFloatCmp            0      0.00%     62.87% # Number of instructions issued per FU type, per thread (Count)
system.cpu.statIssuedInstType_0::SimdFloatCvt     14554549      0.97%     63.83% # Number of instructions issued per FU type, per thread (Count)
system.cpu.statIssuedInstType_0::SimdFloatDiv       314402      0.02%     63.85% # Number of instructions issued per FU type, per thread (Count)
system.cpu.statIssuedInstType_0::SimdFloatMisc            0      0.00%     63.85% # Number of instructions issued per FU type, per thread (Count)
system.cpu.statIssuedInstType_0::SimdFloatMult      4737512      0.31%     64.17% # Number of instructions issued per FU type, per thread (Count)
system.cpu.statIssuedInstType_0::SimdFloatMultAcc            0      0.00%     64.17% # Number of instructions issued per FU type, per thread (Count)
system.cpu.statIssuedInstType_0::SimdFloatMatMultAcc            0      0.00%     64.17% # Number of instructions issued per FU type, per thread (Count)
system.cpu.statIssuedInstType_0::SimdFloatSqrt            0      0.00%     64.17% # Number of instructions issued per FU type, per thread (Count)
system.cpu.statIssuedInstType_0::SimdReduceAdd            0      0.00%     64.17% # Number of instructions issued per FU type, per thread (Count)
system.cpu.statIssuedInstType_0::SimdReduceAlu            0      0.00%     64.17% # Number of instructions issued per FU type, per thread (Count)
system.cpu.statIssuedInstType_0::SimdReduceCmp            0      0.00%     64.17% # Number of instructions issued per FU type, per thread (Count)
system.cpu.statIssuedInstType_0::SimdFloatReduceAdd            0      0.00%     64.17% # Number of instructions issued per FU type, per thread (Count)
system.cpu.statIssuedInstType_0::SimdFloatReduceCmp            0      0.00%     64.17% # Number of instructions issued per FU type, per thread (Count)
system.cpu.statIssuedInstType_0::SimdAes            0      0.00%     64.17% # Number of instructions issued per FU type, per thread (Count)
system.cpu.statIssuedInstType_0::SimdAesMix            0      0.00%     64.17% # Number of instructions issued per FU type, per thread (Count)
system.cpu.statIssuedInstType_0::SimdSha1Hash            0      0.00%     64.17% # Number of instructions issued per FU type, per thread (Count)
system.cpu.statIssuedInstType_0::SimdSha1Hash2            0      0.00%     64.17% # Number of instructions issued per FU type, per thread (Count)
system.cpu.statIssuedInstType_0::SimdSha256Hash            0      0.00%     64.17% # Number of instructions issued per FU type, per thread (Count)
system.cpu.statIssuedInstType_0::SimdSha256Hash2            0      0.00%     64.17% # Number of instructions issued per FU type, per thread (Count)
system.cpu.statIssuedInstType_0::SimdShaSigma2            0      0.00%     64.17% # Number of instructions issued per FU type, per thread (Count)
system.cpu.statIssuedInstType_0::SimdShaSigma3            0      0.00%     64.17% # Number of instructions issued per FU type, per thread (Count)
system.cpu.statIssuedInstType_0::SimdPredAlu            0      0.00%     64.17% # Number of instructions issued per FU type, per thread (Count)
system.cpu.statIssuedInstType_0::Matrix             0      0.00%     64.17% # Number of instructions issued per FU type, per thread (Count)
system.cpu.statIssuedInstType_0::MatrixMov            0      0.00%     64.17% # Number of instructions issued per FU type, per thread (Count)
system.cpu.statIssuedInstType_0::MatrixOP            0      0.00%     64.17% # Number of instructions issued per FU type, per thread (Count)
system.cpu.statIssuedInstType_0::MemRead    304772076     20.22%     84.39% # Number of instructions issued per FU type, per thread (Count)
system.cpu.statIssuedInstType_0::MemWrite    190963980     12.67%     97.05% # Number of instructions issued per FU type, per thread (Count)
system.cpu.statIssuedInstType_0::FloatMemRead     34214024      2.27%     99.32% # Number of instructions issued per FU type, per thread (Count)
system.cpu.statIssuedInstType_0::FloatMemWrite     10179960      0.68%    100.00% # Number of instructions issued per FU type, per thread (Count)
system.cpu.statIssuedInstType_0::IprAccess            0      0.00%    100.00% # Number of instructions issued per FU type, per thread (Count)
system.cpu.statIssuedInstType_0::InstPrefetch            0      0.00%    100.00% # Number of instructions issued per FU type, per thread (Count)
system.cpu.statIssuedInstType_0::SimdUnitStrideLoad            0      0.00%    100.00% # Number of instructions issued per FU type, per thread (Count)
system.cpu.statIssuedInstType_0::SimdUnitStrideStore            0      0.00%    100.00% # Number of instructions issued per FU type, per thread (Count)
system.cpu.statIssuedInstType_0::SimdUnitStrideMaskLoad            0      0.00%    100.00% # Number of instructions issued per FU type, per thread (Count)
system.cpu.statIssuedInstType_0::SimdUnitStrideMaskStore            0      0.00%    100.00% # Number of instructions issued per FU type, per thread (Count)
system.cpu.statIssuedInstType_0::SimdStridedLoad            0      0.00%    100.00% # Number of instructions issued per FU type, per thread (Count)
system.cpu.statIssuedInstType_0::SimdStridedStore            0      0.00%    100.00% # Number of instructions issued per FU type, per thread (Count)
system.cpu.statIssuedInstType_0::SimdIndexedLoad            0      0.00%    100.00% # Number of instructions issued per FU type, per thread (Count)
system.cpu.statIssuedInstType_0::SimdIndexedStore            0      0.00%    100.00% # Number of instructions issued per FU type, per thread (Count)
system.cpu.statIssuedInstType_0::SimdWholeRegisterLoad            0      0.00%    100.00% # Number of instructions issued per FU type, per thread (Count)
system.cpu.statIssuedInstType_0::SimdWholeRegisterStore            0      0.00%    100.00% # Number of instructions issued per FU type, per thread (Count)
system.cpu.statIssuedInstType_0::SimdUnitStrideFaultOnlyFirstLoad            0      0.00%    100.00% # Number of instructions issued per FU type, per thread (Count)
system.cpu.statIssuedInstType_0::SimdUnitStrideSegmentedLoad            0      0.00%    100.00% # Number of instructions issued per FU type, per thread (Count)
system.cpu.statIssuedInstType_0::SimdUnitStrideSegmentedStore            0      0.00%    100.00% # Number of instructions issued per FU type, per thread (Count)
system.cpu.statIssuedInstType_0::SimdExt            0      0.00%    100.00% # Number of instructions issued per FU type, per thread (Count)
system.cpu.statIssuedInstType_0::SimdFloatExt            0      0.00%    100.00% # Number of instructions issued per FU type, per thread (Count)
system.cpu.statIssuedInstType_0::SimdConfig            0      0.00%    100.00% # Number of instructions issued per FU type, per thread (Count)
system.cpu.statIssuedInstType_0::total     1507420656                       # Number of instructions issued per FU type, per thread (Count)
system.cpu.issueRate                         0.993995                       # Inst issue rate ((Count/Cycle))
system.cpu.fuBusy                            11632514                       # FU busy when requested (Count)
system.cpu.fuBusyRate                        0.007717                       # FU busy rate (busy events/executed inst) ((Count/Count))
system.cpu.intInstQueueReads               4301832439                       # Number of integer instruction queue reads (Count)
system.cpu.intInstQueueWrites              1393212636                       # Number of integer instruction queue writes (Count)
system.cpu.intInstQueueWakeupAccesses      1388706950                       # Number of integer instruction queue wakeup accesses (Count)
system.cpu.fpInstQueueReads                 236962714                       # Number of floating instruction queue reads (Count)
system.cpu.fpInstQueueWrites                118672086                       # Number of floating instruction queue writes (Count)
system.cpu.fpInstQueueWakeupAccesses        118471589                       # Number of floating instruction queue wakeup accesses (Count)
system.cpu.vecInstQueueReads                        0                       # Number of vector instruction queue reads (Count)
system.cpu.vecInstQueueWrites                       0                       # Number of vector instruction queue writes (Count)
system.cpu.vecInstQueueWakeupAccesses               0                       # Number of vector instruction queue wakeup accesses (Count)
system.cpu.intAluAccesses                  1400538794                       # Number of integer alu accesses (Count)
system.cpu.fpAluAccesses                    118481748                       # Number of floating point alu accesses (Count)
system.cpu.vecAluAccesses                           0                       # Number of vector alu accesses (Count)
system.cpu.numSquashedInsts                    171459                       # Number of squashed instructions skipped in execute (Count)
system.cpu.numSwp                                   0                       # Number of swp insts executed (Count)
system.cpu.timesIdled                            3306                       # Number of times that the entire CPU went into an idle state and unscheduled itself (Count)
system.cpu.idleCycles                         4210563                       # Total number of cycles that the CPU has spent unscheduled due to idling (Cycle)
system.cpu.MemDepUnit__0.insertedLoads      339219566                       # Number of loads inserted to the mem dependence unit. (Count)
system.cpu.MemDepUnit__0.insertedStores     201273258                       # Number of stores inserted to the mem dependence unit. (Count)
system.cpu.MemDepUnit__0.conflictingLoads    162410809                       # Number of conflicting loads. (Count)
system.cpu.MemDepUnit__0.conflictingStores     48133265                       # Number of conflicting stores. (Count)
system.cpu.MemDepUnit__1.insertedLoads              0                       # Number of loads inserted to the mem dependence unit. (Count)
system.cpu.MemDepUnit__1.insertedStores             0                       # Number of stores inserted to the mem dependence unit. (Count)
system.cpu.MemDepUnit__1.conflictingLoads            0                       # Number of conflicting loads. (Count)
system.cpu.MemDepUnit__1.conflictingStores            0                       # Number of conflicting stores. (Count)
system.cpu.MemDepUnit__2.insertedLoads              0                       # Number of loads inserted to the mem dependence unit. (Count)
system.cpu.MemDepUnit__2.insertedStores             0                       # Number of stores inserted to the mem dependence unit. (Count)
system.cpu.MemDepUnit__2.conflictingLoads            0                       # Number of conflicting loads. (Count)
system.cpu.MemDepUnit__2.conflictingStores            0                       # Number of conflicting stores. (Count)
system.cpu.MemDepUnit__3.insertedLoads              0                       # Number of loads inserted to the mem dependence unit. (Count)
system.cpu.MemDepUnit__3.insertedStores             0                       # Number of stores inserted to the mem dependence unit. (Count)
system.cpu.MemDepUnit__3.conflictingLoads            0                       # Number of conflicting loads. (Count)
system.cpu.MemDepUnit__3.conflictingStores            0                       # Number of conflicting stores. (Count)
system.cpu.branchPred.lookups_0::NoBranch            0      0.00%      0.00% # Number of BP lookups (Count)
system.cpu.branchPred.lookups_0::Return      45187323     39.58%     39.58% # Number of BP lookups (Count)
system.cpu.branchPred.lookups_0::CallDirect     45161979     39.55%     79.13% # Number of BP lookups (Count)
system.cpu.branchPred.lookups_0::CallIndirect         1061      0.00%     79.13% # Number of BP lookups (Count)
system.cpu.branchPred.lookups_0::DirectCond     23145144     20.27%     99.40% # Number of BP lookups (Count)
system.cpu.branchPred.lookups_0::DirectUncond       325347      0.28%     99.69% # Number of BP lookups (Count)
system.cpu.branchPred.lookups_0::IndirectCond            0      0.00%     99.69% # Number of BP lookups (Count)
system.cpu.branchPred.lookups_0::IndirectUncond       358562      0.31%    100.00% # Number of BP lookups (Count)
system.cpu.branchPred.lookups_0::total      114179416                       # Number of BP lookups (Count)
system.cpu.branchPred.squashes_0::NoBranch            0      0.00%      0.00% # Number of branches that got squashed (completely removed) as an earlier branch was mispredicted. (Count)
system.cpu.branchPred.squashes_0::Return       149577     33.34%     33.34% # Number of branches that got squashed (completely removed) as an earlier branch was mispredicted. (Count)
system.cpu.branchPred.squashes_0::CallDirect       124849     27.83%     61.17% # Number of branches that got squashed (completely removed) as an earlier branch was mispredicted. (Count)
system.cpu.branchPred.squashes_0::CallIndirect          441      0.10%     61.27% # Number of branches that got squashed (completely removed) as an earlier branch was mispredicted. (Count)
system.cpu.branchPred.squashes_0::DirectCond       151485     33.77%     95.03% # Number of branches that got squashed (completely removed) as an earlier branch was mispredicted. (Count)
system.cpu.branchPred.squashes_0::DirectUncond        19379      4.32%     99.35% # Number of branches that got squashed (completely removed) as an earlier branch was mispredicted. (Count)
system.cpu.branchPred.squashes_0::IndirectCond            0      0.00%     99.35% # Number of branches that got squashed (completely removed) as an earlier branch was mispredicted. (Count)
system.cpu.branchPred.squashes_0::IndirectUncond         2906      0.65%    100.00% # Number of branches that got squashed (completely removed) as an earlier branch was mispredicted. (Count)
system.cpu.branchPred.squashes_0::total        448637                       # Number of branches that got squashed (completely removed) as an earlier branch was mispredicted. (Count)
system.cpu.branchPred.corrected_0::NoBranch            0      0.00%      0.00% # Number of branches that got corrected but not yet commited. Branches get corrected by decode or after execute. Also a branch misprediction can be detected out-of-order. Therefore, a corrected branch might not end up beeing committed in case an even earlier branch was mispredicted (Count)
system.cpu.branchPred.corrected_0::Return          180      0.39%      0.39% # Number of branches that got corrected but not yet commited. Branches get corrected by decode or after execute. Also a branch misprediction can be detected out-of-order. Therefore, a corrected branch might not end up beeing committed in case an even earlier branch was mispredicted (Count)
system.cpu.branchPred.corrected_0::CallDirect         1796      3.85%      4.24% # Number of branches that got corrected but not yet commited. Branches get corrected by decode or after execute. Also a branch misprediction can be detected out-of-order. Therefore, a corrected branch might not end up beeing committed in case an even earlier branch was mispredicted (Count)
system.cpu.branchPred.corrected_0::CallIndirect          178      0.38%      4.62% # Number of branches that got corrected but not yet commited. Branches get corrected by decode or after execute. Also a branch misprediction can be detected out-of-order. Therefore, a corrected branch might not end up beeing committed in case an even earlier branch was mispredicted (Count)
system.cpu.branchPred.corrected_0::DirectCond        43325     92.87%     97.49% # Number of branches that got corrected but not yet commited. Branches get corrected by decode or after execute. Also a branch misprediction can be detected out-of-order. Therefore, a corrected branch might not end up beeing committed in case an even earlier branch was mispredicted (Count)
system.cpu.branchPred.corrected_0::DirectUncond          829      1.78%     99.27% # Number of branches that got corrected but not yet commited. Branches get corrected by decode or after execute. Also a branch misprediction can be detected out-of-order. Therefore, a corrected branch might not end up beeing committed in case an even earlier branch was mispredicted (Count)
system.cpu.branchPred.corrected_0::IndirectCond            0      0.00%     99.27% # Number of branches that got corrected but not yet commited. Branches get corrected by decode or after execute. Also a branch misprediction can be detected out-of-order. Therefore, a corrected branch might not end up beeing committed in case an even earlier branch was mispredicted (Count)
system.cpu.branchPred.corrected_0::IndirectUncond          341      0.73%    100.00% # Number of branches that got corrected but not yet commited. Branches get corrected by decode or after execute. Also a branch misprediction can be detected out-of-order. Therefore, a corrected branch might not end up beeing committed in case an even earlier branch was mispredicted (Count)
system.cpu.branchPred.corrected_0::total        46649                       # Number of branches that got corrected but not yet commited. Branches get corrected by decode or after execute. Also a branch misprediction can be detected out-of-order. Therefore, a corrected branch might not end up beeing committed in case an even earlier branch was mispredicted (Count)
system.cpu.branchPred.earlyResteers_0::NoBranch            0                       # Number of branches that got redirected after decode. (Count)
system.cpu.branchPred.earlyResteers_0::Return            0                       # Number of branches that got redirected after decode. (Count)
system.cpu.branchPred.earlyResteers_0::CallDirect            0                       # Number of branches that got redirected after decode. (Count)
system.cpu.branchPred.earlyResteers_0::CallIndirect            0                       # Number of branches that got redirected after decode. (Count)
system.cpu.branchPred.earlyResteers_0::DirectCond            0                       # Number of branches that got redirected after decode. (Count)
system.cpu.branchPred.earlyResteers_0::DirectUncond            0                       # Number of branches that got redirected after decode. (Count)
system.cpu.branchPred.earlyResteers_0::IndirectCond            0                       # Number of branches that got redirected after decode. (Count)
system.cpu.branchPred.earlyResteers_0::IndirectUncond            0                       # Number of branches that got redirected after decode. (Count)
system.cpu.branchPred.earlyResteers_0::total            0                       # Number of branches that got redirected after decode. (Count)
system.cpu.branchPred.committed_0::NoBranch            0      0.00%      0.00% # Number of branches finally committed  (Count)
system.cpu.branchPred.committed_0::Return     45037746     39.60%     39.60% # Number of branches finally committed  (Count)
system.cpu.branchPred.committed_0::CallDirect     45037130     39.60%     79.20% # Number of branches finally committed  (Count)
system.cpu.branchPred.committed_0::CallIndirect          620      0.00%     79.20% # Number of branches finally committed  (Count)
system.cpu.branchPred.committed_0::DirectCond     22993658     20.22%     99.42% # Number of branches finally committed  (Count)
system.cpu.branchPred.committed_0::DirectUncond       305968      0.27%     99.69% # Number of branches finally committed  (Count)
system.cpu.branchPred.committed_0::IndirectCond            0      0.00%     99.69% # Number of branches finally committed  (Count)
system.cpu.branchPred.committed_0::IndirectUncond       355656      0.31%    100.00% # Number of branches finally committed  (Count)
system.cpu.branchPred.committed_0::total    113730778                       # Number of branches finally committed  (Count)
system.cpu.branchPred.mispredicted_0::NoBranch            0      0.00%      0.00% # Number of committed branches that were mispredicted. (Count)
system.cpu.branchPred.mispredicted_0::Return          164      0.38%      0.38% # Number of committed branches that were mispredicted. (Count)
system.cpu.branchPred.mispredicted_0::CallDirect         1323      3.05%      3.43% # Number of committed branches that were mispredicted. (Count)
system.cpu.branchPred.mispredicted_0::CallIndirect          162      0.37%      3.80% # Number of committed branches that were mispredicted. (Count)
system.cpu.branchPred.mispredicted_0::DirectCond        41007     94.50%     98.30% # Number of committed branches that were mispredicted. (Count)
system.cpu.branchPred.mispredicted_0::DirectUncond          434      1.00%     99.30% # Number of committed branches that were mispredicted. (Count)
system.cpu.branchPred.mispredicted_0::IndirectCond            0      0.00%     99.30% # Number of committed branches that were mispredicted. (Count)
system.cpu.branchPred.mispredicted_0::IndirectUncond          303      0.70%    100.00% # Number of committed branches that were mispredicted. (Count)
system.cpu.branchPred.mispredicted_0::total        43393                       # Number of committed branches that were mispredicted. (Count)
system.cpu.branchPred.targetProvider_0::NoTarget      2744351      2.40%      2.40% # The component providing the target for taken branches (Count)
system.cpu.branchPred.targetProvider_0::BTB     65890356     57.71%     60.11% # The component providing the target for taken branches (Count)
system.cpu.branchPred.targetProvider_0::RAS     45187318     39.58%     99.69% # The component providing the target for taken branches (Count)
system.cpu.branchPred.targetProvider_0::Indirect       357391      0.31%    100.00% # The component providing the target for taken branches (Count)
system.cpu.branchPred.targetProvider_0::total    114179416                       # The component providing the target for taken branches (Count)
system.cpu.branchPred.targetWrong_0::NoBranch        21334     46.04%     46.04% # Number of branches where the target was incorrect or not available at prediction time. (Count)
system.cpu.branchPred.targetWrong_0::Return        24803     53.53%     99.56% # Number of branches where the target was incorrect or not available at prediction time. (Count)
system.cpu.branchPred.targetWrong_0::CallDirect          180      0.39%     99.95% # Number of branches where the target was incorrect or not available at prediction time. (Count)
system.cpu.branchPred.targetWrong_0::CallIndirect           22      0.05%    100.00% # Number of branches where the target was incorrect or not available at prediction time. (Count)
system.cpu.branchPred.targetWrong_0::DirectCond            0      0.00%    100.00% # Number of branches where the target was incorrect or not available at prediction time. (Count)
system.cpu.branchPred.targetWrong_0::DirectUncond            0      0.00%    100.00% # Number of branches where the target was incorrect or not available at prediction time. (Count)
system.cpu.branchPred.targetWrong_0::IndirectCond            0      0.00%    100.00% # Number of branches where the target was incorrect or not available at prediction time. (Count)
system.cpu.branchPred.targetWrong_0::IndirectUncond            0      0.00%    100.00% # Number of branches where the target was incorrect or not available at prediction time. (Count)
system.cpu.branchPred.targetWrong_0::total        46339                       # Number of branches where the target was incorrect or not available at prediction time. (Count)
system.cpu.branchPred.condPredicted          23145144                       # Number of conditional branches predicted (Count)
system.cpu.branchPred.condPredictedTaken     20410332                       # Number of conditional branches predicted as taken (Count)
system.cpu.branchPred.condIncorrect             46649                       # Number of conditional branches incorrect (Count)
system.cpu.branchPred.predTakenBTBMiss           3933                       # Number of branches predicted taken but missed in BTB (Count)
system.cpu.branchPred.NotTakenMispredicted        21925                       # Number branches predicted 'not taken' but turned out to be taken (Count)
system.cpu.branchPred.TakenMispredicted         24724                       # Number branches predicted taken but are actually not taken (Count)
system.cpu.branchPred.BTBLookups            114179416                       # Number of BTB lookups (Count)
system.cpu.branchPred.BTBUpdates                21226                       # Number of BTB updates (Count)
system.cpu.branchPred.BTBHits                66895023                       # Number of BTB hits (Count)
system.cpu.branchPred.BTBHitRatio            0.585876                       # BTB Hit Ratio (Ratio)
system.cpu.branchPred.BTBMispredicted            4800                       # Number BTB mispredictions. No target found or target wrong (Count)
system.cpu.branchPred.indirectLookups          359623                       # Number of indirect predictor lookups. (Count)
system.cpu.branchPred.indirectHits             357391                       # Number of indirect target hits. (Count)
system.cpu.branchPred.indirectMisses             2232                       # Number of indirect misses. (Count)
system.cpu.branchPred.indirectMispredicted            0                       # Number of mispredicted indirect branches. (Count)
system.cpu.branchPred.btb.lookups::NoBranch            0      0.00%      0.00% # Number of BTB lookups (Count)
system.cpu.branchPred.btb.lookups::Return     45187323     39.58%     39.58% # Number of BTB lookups (Count)
system.cpu.branchPred.btb.lookups::CallDirect     45161979     39.55%     79.13% # Number of BTB lookups (Count)
system.cpu.branchPred.btb.lookups::CallIndirect         1061      0.00%     79.13% # Number of BTB lookups (Count)
system.cpu.branchPred.btb.lookups::DirectCond     23145144     20.27%     99.40% # Number of BTB lookups (Count)
system.cpu.branchPred.btb.lookups::DirectUncond       325347      0.28%     99.69% # Number of BTB lookups (Count)
system.cpu.branchPred.btb.lookups::IndirectCond            0      0.00%     99.69% # Number of BTB lookups (Count)
system.cpu.branchPred.btb.lookups::IndirectUncond       358562      0.31%    100.00% # Number of BTB lookups (Count)
system.cpu.branchPred.btb.lookups::total    114179416                       # Number of BTB lookups (Count)
system.cpu.branchPred.btb.misses::NoBranch            0      0.00%      0.00% # Number of BTB misses (Count)
system.cpu.branchPred.btb.misses::Return     45187269     95.56%     95.56% # Number of BTB misses (Count)
system.cpu.branchPred.btb.misses::CallDirect         2277      0.00%     95.57% # Number of BTB misses (Count)
system.cpu.branchPred.btb.misses::CallIndirect          925      0.00%     95.57% # Number of BTB misses (Count)
system.cpu.branchPred.btb.misses::DirectCond      1734276      3.67%     99.24% # Number of BTB misses (Count)
system.cpu.branchPred.btb.misses::DirectUncond         1084      0.00%     99.24% # Number of BTB misses (Count)
system.cpu.branchPred.btb.misses::IndirectCond            0      0.00%     99.24% # Number of BTB misses (Count)
system.cpu.branchPred.btb.misses::IndirectUncond       358562      0.76%    100.00% # Number of BTB misses (Count)
system.cpu.branchPred.btb.misses::total      47284393                       # Number of BTB misses (Count)
system.cpu.branchPred.btb.updates::NoBranch            0      0.00%      0.00% # Number of BTB updates (Count)
system.cpu.branchPred.btb.updates::Return            0      0.00%      0.00% # Number of BTB updates (Count)
system.cpu.branchPred.btb.updates::CallDirect         1796      8.46%      8.46% # Number of BTB updates (Count)
system.cpu.branchPred.btb.updates::CallIndirect            0      0.00%      8.46% # Number of BTB updates (Count)
system.cpu.branchPred.btb.updates::DirectCond        18601     87.63%     96.09% # Number of BTB updates (Count)
system.cpu.branchPred.btb.updates::DirectUncond          829      3.91%    100.00% # Number of BTB updates (Count)
system.cpu.branchPred.btb.updates::IndirectCond            0      0.00%    100.00% # Number of BTB updates (Count)
system.cpu.branchPred.btb.updates::IndirectUncond            0      0.00%    100.00% # Number of BTB updates (Count)
system.cpu.branchPred.btb.updates::total        21226                       # Number of BTB updates (Count)
system.cpu.branchPred.btb.mispredict::NoBranch            0      0.00%      0.00% # Number of BTB mispredictions. No target found or target wrong. (Count)
system.cpu.branchPred.btb.mispredict::Return            0      0.00%      0.00% # Number of BTB mispredictions. No target found or target wrong. (Count)
system.cpu.branchPred.btb.mispredict::CallDirect         1796      8.46%      8.46% # Number of BTB mispredictions. No target found or target wrong. (Count)
system.cpu.branchPred.btb.mispredict::CallIndirect            0      0.00%      8.46% # Number of BTB mispredictions. No target found or target wrong. (Count)
system.cpu.branchPred.btb.mispredict::DirectCond        18601     87.63%     96.09% # Number of BTB mispredictions. No target found or target wrong. (Count)
system.cpu.branchPred.btb.mispredict::DirectUncond          829      3.91%    100.00% # Number of BTB mispredictions. No target found or target wrong. (Count)
system.cpu.branchPred.btb.mispredict::IndirectCond            0      0.00%    100.00% # Number of BTB mispredictions. No target found or target wrong. (Count)
system.cpu.branchPred.btb.mispredict::IndirectUncond            0      0.00%    100.00% # Number of BTB mispredictions. No target found or target wrong. (Count)
system.cpu.branchPred.btb.mispredict::total        21226                       # Number of BTB mispredictions. No target found or target wrong. (Count)
system.cpu.branchPred.btb.power_state.pwrStateResidencyTicks::UNDEFINED 474672981048                       # Cumulative time (in ticks) in various power states (Tick)
system.cpu.branchPred.indirectBranchPred.lookups       359623                       # Number of lookups (Count)
system.cpu.branchPred.indirectBranchPred.hits       357391                       # Number of hits of a tag (Count)
system.cpu.branchPred.indirectBranchPred.misses         2232                       # Number of misses (Count)
system.cpu.branchPred.indirectBranchPred.targetRecords          519                       # Number of targets that where recorded/installed in the cache (Count)
system.cpu.branchPred.indirectBranchPred.indirectRecords       360142                       # Number of indirect branches/calls recorded in the indirect hist (Count)
system.cpu.branchPred.indirectBranchPred.speculativeOverflows            0                       # Number of times more than the allowed capacity for speculative branches/calls where in flight and destroy the path history (Count)
system.cpu.branchPred.ras.pushes             45312617                       # Number of times a PC was pushed onto the RAS (Count)
system.cpu.branchPred.ras.pops               45312613                       # Number of times a PC was poped from the RAS (Count)
system.cpu.branchPred.ras.squashes             274867                       # Number of times the stack operation was squashed due to wrong speculation. (Count)
system.cpu.branchPred.ras.used               45037746                       # Number of times the RAS is the provider (Count)
system.cpu.branchPred.ras.correct            45037582                       # Number of times the RAS is the provider and the prediction is correct (Count)
system.cpu.branchPred.ras.incorrect               164                       # Number of times the RAS is the provider and the prediction is wrong (Count)
system.cpu.commit.commitSquashedInsts         3388291                       # The number of squashed insts skipped by commit (Count)
system.cpu.commit.commitNonSpecStalls            2121                       # The number of times commit has been forced to stall to communicate backwards (Count)
system.cpu.commit.branchMispredicts             45467                       # The number of times a branch was mispredicted (Count)
system.cpu.commit.numCommittedDist::samples   1511840682                       # Number of insts commited each cycle (Count)
system.cpu.commit.numCommittedDist::mean     0.995485                       # Number of insts commited each cycle (Count)
system.cpu.commit.numCommittedDist::stdev     2.313008                       # Number of insts commited each cycle (Count)
system.cpu.commit.numCommittedDist::underflows            0      0.00%      0.00% # Number of insts commited each cycle (Count)
system.cpu.commit.numCommittedDist::0      1159457702     76.69%     76.69% # Number of insts commited each cycle (Count)
system.cpu.commit.numCommittedDist::1       112629498      7.45%     84.14% # Number of insts commited each cycle (Count)
system.cpu.commit.numCommittedDist::2        30984511      2.05%     86.19% # Number of insts commited each cycle (Count)
system.cpu.commit.numCommittedDist::3        44313005      2.93%     89.12% # Number of insts commited each cycle (Count)
system.cpu.commit.numCommittedDist::4         7553013      0.50%     89.62% # Number of insts commited each cycle (Count)
system.cpu.commit.numCommittedDist::5        14448151      0.96%     90.58% # Number of insts commited each cycle (Count)
system.cpu.commit.numCommittedDist::6        10620683      0.70%     91.28% # Number of insts commited each cycle (Count)
system.cpu.commit.numCommittedDist::7        23372620      1.55%     92.83% # Number of insts commited each cycle (Count)
system.cpu.commit.numCommittedDist::8       108461499      7.17%    100.00% # Number of insts commited each cycle (Count)
system.cpu.commit.numCommittedDist::overflows            0      0.00%    100.00% # Number of insts commited each cycle (Count)
system.cpu.commit.numCommittedDist::min_value            0                       # Number of insts commited each cycle (Count)
system.cpu.commit.numCommittedDist::max_value            8                       # Number of insts commited each cycle (Count)
system.cpu.commit.numCommittedDist::total   1511840682                       # Number of insts commited each cycle (Count)
system.cpu.commit.amos                              0                       # Number of atomic instructions committed (Count)
system.cpu.commit.membars                        1270                       # Number of memory barriers committed (Count)
system.cpu.commit.functionCalls              45037750                       # Number of function calls committed. (Count)
system.cpu.commit.committedInstType_0::No_OpClass        29243      0.00%      0.00% # Class of committed instruction (Count)
system.cpu.commit.committedInstType_0::IntAlu    886175121     58.88%     58.88% # Class of committed instruction (Count)
system.cpu.commit.committedInstType_0::IntMult      5383987      0.36%     59.24% # Class of committed instruction (Count)
system.cpu.commit.committedInstType_0::IntDiv         3677      0.00%     59.24% # Class of committed instruction (Count)
system.cpu.commit.committedInstType_0::FloatAdd     29422711      1.95%     61.20% # Class of committed instruction (Count)
system.cpu.commit.committedInstType_0::FloatCmp            0      0.00%     61.20% # Class of committed instruction (Count)
system.cpu.commit.committedInstType_0::FloatCvt          384      0.00%     61.20% # Class of committed instruction (Count)
system.cpu.commit.committedInstType_0::FloatMult            0      0.00%     61.20% # Class of committed instruction (Count)
system.cpu.commit.committedInstType_0::FloatMultAcc            0      0.00%     61.20% # Class of committed instruction (Count)
system.cpu.commit.committedInstType_0::FloatDiv            0      0.00%     61.20% # Class of committed instruction (Count)
system.cpu.commit.committedInstType_0::FloatMisc            0      0.00%     61.20% # Class of committed instruction (Count)
system.cpu.commit.committedInstType_0::FloatSqrt            0      0.00%     61.20% # Class of committed instruction (Count)
system.cpu.commit.committedInstType_0::SimdAdd           20      0.00%     61.20% # Class of committed instruction (Count)
system.cpu.commit.committedInstType_0::SimdAddAcc            0      0.00%     61.20% # Class of committed instruction (Count)
system.cpu.commit.committedInstType_0::SimdAlu     10139386      0.67%     61.87% # Class of committed instruction (Count)
system.cpu.commit.committedInstType_0::SimdCmp            0      0.00%     61.87% # Class of committed instruction (Count)
system.cpu.commit.committedInstType_0::SimdCvt          258      0.00%     61.87% # Class of committed instruction (Count)
system.cpu.commit.committedInstType_0::SimdMisc      9819385      0.65%     62.52% # Class of committed instruction (Count)
system.cpu.commit.committedInstType_0::SimdMult            0      0.00%     62.52% # Class of committed instruction (Count)
system.cpu.commit.committedInstType_0::SimdMultAcc            0      0.00%     62.52% # Class of committed instruction (Count)
system.cpu.commit.committedInstType_0::SimdMatMultAcc            0      0.00%     62.52% # Class of committed instruction (Count)
system.cpu.commit.committedInstType_0::SimdShift            0      0.00%     62.52% # Class of committed instruction (Count)
system.cpu.commit.committedInstType_0::SimdShiftAcc            0      0.00%     62.52% # Class of committed instruction (Count)
system.cpu.commit.committedInstType_0::SimdDiv            0      0.00%     62.52% # Class of committed instruction (Count)
system.cpu.commit.committedInstType_0::SimdSqrt            0      0.00%     62.52% # Class of committed instruction (Count)
system.cpu.commit.committedInstType_0::SimdFloatAdd      5051136      0.34%     62.86% # Class of committed instruction (Count)
system.cpu.commit.committedInstType_0::SimdFloatAlu            0      0.00%     62.86% # Class of committed instruction (Count)
system.cpu.commit.committedInstType_0::SimdFloatCmp            0      0.00%     62.86% # Class of committed instruction (Count)
system.cpu.commit.committedInstType_0::SimdFloatCvt     14543616      0.97%     63.82% # Class of committed instruction (Count)
system.cpu.commit.committedInstType_0::SimdFloatDiv       314112      0.02%     63.85% # Class of committed instruction (Count)
system.cpu.commit.committedInstType_0::SimdFloatMisc            0      0.00%     63.85% # Class of committed instruction (Count)
system.cpu.commit.committedInstType_0::SimdFloatMult      4737024      0.31%     64.16% # Class of committed instruction (Count)
system.cpu.commit.committedInstType_0::SimdFloatMultAcc            0      0.00%     64.16% # Class of committed instruction (Count)
system.cpu.commit.committedInstType_0::SimdFloatMatMultAcc            0      0.00%     64.16% # Class of committed instruction (Count)
system.cpu.commit.committedInstType_0::SimdFloatSqrt            0      0.00%     64.16% # Class of committed instruction (Count)
system.cpu.commit.committedInstType_0::SimdReduceAdd            0      0.00%     64.16% # Class of committed instruction (Count)
system.cpu.commit.committedInstType_0::SimdReduceAlu            0      0.00%     64.16% # Class of committed instruction (Count)
system.cpu.commit.committedInstType_0::SimdReduceCmp            0      0.00%     64.16% # Class of committed instruction (Count)
system.cpu.commit.committedInstType_0::SimdFloatReduceAdd            0      0.00%     64.16% # Class of committed instruction (Count)
system.cpu.commit.committedInstType_0::SimdFloatReduceCmp            0      0.00%     64.16% # Class of committed instruction (Count)
system.cpu.commit.committedInstType_0::SimdAes            0      0.00%     64.16% # Class of committed instruction (Count)
system.cpu.commit.committedInstType_0::SimdAesMix            0      0.00%     64.16% # Class of committed instruction (Count)
system.cpu.commit.committedInstType_0::SimdSha1Hash            0      0.00%     64.16% # Class of committed instruction (Count)
system.cpu.commit.committedInstType_0::SimdSha1Hash2            0      0.00%     64.16% # Class of committed instruction (Count)
system.cpu.commit.committedInstType_0::SimdSha256Hash            0      0.00%     64.16% # Class of committed instruction (Count)
system.cpu.commit.committedInstType_0::SimdSha256Hash2            0      0.00%     64.16% # Class of committed instruction (Count)
system.cpu.commit.committedInstType_0::SimdShaSigma2            0      0.00%     64.16% # Class of committed instruction (Count)
system.cpu.commit.committedInstType_0::SimdShaSigma3            0      0.00%     64.16% # Class of committed instruction (Count)
system.cpu.commit.committedInstType_0::SimdPredAlu            0      0.00%     64.16% # Class of committed instruction (Count)
system.cpu.commit.committedInstType_0::Matrix            0      0.00%     64.16% # Class of committed instruction (Count)
system.cpu.commit.committedInstType_0::MatrixMov            0      0.00%     64.16% # Class of committed instruction (Count)
system.cpu.commit.committedInstType_0::MatrixOP            0      0.00%     64.16% # Class of committed instruction (Count)
system.cpu.commit.committedInstType_0::MemRead    304321508     20.22%     84.38% # Class of committed instruction (Count)
system.cpu.commit.committedInstType_0::MemWrite    190717585     12.67%     97.05% # Class of committed instruction (Count)
system.cpu.commit.committedInstType_0::FloatMemRead     34179340      2.27%     99.32% # Class of committed instruction (Count)
system.cpu.commit.committedInstType_0::FloatMemWrite     10176279      0.68%    100.00% # Class of committed instruction (Count)
system.cpu.commit.committedInstType_0::IprAccess            0      0.00%    100.00% # Class of committed instruction (Count)
system.cpu.commit.committedInstType_0::InstPrefetch            0      0.00%    100.00% # Class of committed instruction (Count)
system.cpu.commit.committedInstType_0::SimdUnitStrideLoad            0      0.00%    100.00% # Class of committed instruction (Count)
system.cpu.commit.committedInstType_0::SimdUnitStrideStore            0      0.00%    100.00% # Class of committed instruction (Count)
system.cpu.commit.committedInstType_0::SimdUnitStrideMaskLoad            0      0.00%    100.00% # Class of committed instruction (Count)
system.cpu.commit.committedInstType_0::SimdUnitStrideMaskStore            0      0.00%    100.00% # Class of committed instruction (Count)
system.cpu.commit.committedInstType_0::SimdStridedLoad            0      0.00%    100.00% # Class of committed instruction (Count)
system.cpu.commit.committedInstType_0::SimdStridedStore            0      0.00%    100.00% # Class of committed instruction (Count)
system.cpu.commit.committedInstType_0::SimdIndexedLoad            0      0.00%    100.00% # Class of committed instruction (Count)
system.cpu.commit.committedInstType_0::SimdIndexedStore            0      0.00%    100.00% # Class of committed instruction (Count)
system.cpu.commit.committedInstType_0::SimdWholeRegisterLoad            0      0.00%    100.00% # Class of committed instruction (Count)
system.cpu.commit.committedInstType_0::SimdWholeRegisterStore            0      0.00%    100.00% # Class of committed instruction (Count)
system.cpu.commit.committedInstType_0::SimdUnitStrideFaultOnlyFirstLoad            0      0.00%    100.00% # Class of committed instruction (Count)
system.cpu.commit.committedInstType_0::SimdUnitStrideSegmentedLoad            0      0.00%    100.00% # Class of committed instruction (Count)
system.cpu.commit.committedInstType_0::SimdUnitStrideSegmentedStore            0      0.00%    100.00% # Class of committed instruction (Count)
system.cpu.commit.committedInstType_0::SimdExt            0      0.00%    100.00% # Class of committed instruction (Count)
system.cpu.commit.committedInstType_0::SimdFloatExt            0      0.00%    100.00% # Class of committed instruction (Count)
system.cpu.commit.committedInstType_0::SimdConfig            0      0.00%    100.00% # Class of committed instruction (Count)
system.cpu.commit.committedInstType_0::total   1505014772                       # Class of committed instruction (Count)
system.cpu.commit.commitEligibleSamples     108461499                       # number cycles where commit BW limit reached (Cycle)
system.cpu.commitStats0.numInsts            900344644                       # Number of instructions committed (thread level) (Count)
system.cpu.commitStats0.numOps             1505014772                       # Number of ops (including micro ops) committed (thread level) (Count)
system.cpu.commitStats0.numInstsNotNOP      900344644                       # Number of instructions committed excluding NOPs or prefetches (Count)
system.cpu.commitStats0.numOpsNotNOP       1505014772                       # Number of Ops (including micro ops) Simulated (Count)
system.cpu.commitStats0.cpi                  1.684385                       # CPI: cycles per instruction (thread level) ((Cycle/Count))
system.cpu.commitStats0.ipc                  0.593688                       # IPC: instructions per cycle (thread level) ((Count/Cycle))
system.cpu.commitStats0.numMemRefs          539394712                       # Number of memory references committed (Count)
system.cpu.commitStats0.numFpInsts          118383692                       # Number of float instructions (Count)
system.cpu.commitStats0.numIntInsts        1440460406                       # Number of integer instructions (Count)
system.cpu.commitStats0.numLoadInsts        338500848                       # Number of load instructions (Count)
system.cpu.commitStats0.numStoreInsts       200893864                       # Number of store instructions (Count)
system.cpu.commitStats0.numVecInsts                 0                       # Number of vector instructions (Count)
system.cpu.commitStats0.committedInstType::No_OpClass        29243      0.00%      0.00% # Class of committed instruction. (Count)
system.cpu.commitStats0.committedInstType::IntAlu    886175121     58.88%     58.88% # Class of committed instruction. (Count)
system.cpu.commitStats0.committedInstType::IntMult      5383987      0.36%     59.24% # Class of committed instruction. (Count)
system.cpu.commitStats0.committedInstType::IntDiv         3677      0.00%     59.24% # Class of committed instruction. (Count)
system.cpu.commitStats0.committedInstType::FloatAdd     29422711      1.95%     61.20% # Class of committed instruction. (Count)
system.cpu.commitStats0.committedInstType::FloatCmp            0      0.00%     61.20% # Class of committed instruction. (Count)
system.cpu.commitStats0.committedInstType::FloatCvt          384      0.00%     61.20% # Class of committed instruction. (Count)
system.cpu.commitStats0.committedInstType::FloatMult            0      0.00%     61.20% # Class of committed instruction. (Count)
system.cpu.commitStats0.committedInstType::FloatMultAcc            0      0.00%     61.20% # Class of committed instruction. (Count)
system.cpu.commitStats0.committedInstType::FloatDiv            0      0.00%     61.20% # Class of committed instruction. (Count)
system.cpu.commitStats0.committedInstType::FloatMisc            0      0.00%     61.20% # Class of committed instruction. (Count)
system.cpu.commitStats0.committedInstType::FloatSqrt            0      0.00%     61.20% # Class of committed instruction. (Count)
system.cpu.commitStats0.committedInstType::SimdAdd           20      0.00%     61.20% # Class of committed instruction. (Count)
system.cpu.commitStats0.committedInstType::SimdAddAcc            0      0.00%     61.20% # Class of committed instruction. (Count)
system.cpu.commitStats0.committedInstType::SimdAlu     10139386      0.67%     61.87% # Class of committed instruction. (Count)
system.cpu.commitStats0.committedInstType::SimdCmp            0      0.00%     61.87% # Class of committed instruction. (Count)
system.cpu.commitStats0.committedInstType::SimdCvt          258      0.00%     61.87% # Class of committed instruction. (Count)
system.cpu.commitStats0.committedInstType::SimdMisc      9819385      0.65%     62.52% # Class of committed instruction. (Count)
system.cpu.commitStats0.committedInstType::SimdMult            0      0.00%     62.52% # Class of committed instruction. (Count)
system.cpu.commitStats0.committedInstType::SimdMultAcc            0      0.00%     62.52% # Class of committed instruction. (Count)
system.cpu.commitStats0.committedInstType::SimdMatMultAcc            0      0.00%     62.52% # Class of committed instruction. (Count)
system.cpu.commitStats0.committedInstType::SimdShift            0      0.00%     62.52% # Class of committed instruction. (Count)
system.cpu.commitStats0.committedInstType::SimdShiftAcc            0      0.00%     62.52% # Class of committed instruction. (Count)
system.cpu.commitStats0.committedInstType::SimdDiv            0      0.00%     62.52% # Class of committed instruction. (Count)
system.cpu.commitStats0.committedInstType::SimdSqrt            0      0.00%     62.52% # Class of committed instruction. (Count)
system.cpu.commitStats0.committedInstType::SimdFloatAdd      5051136      0.34%     62.86% # Class of committed instruction. (Count)
system.cpu.commitStats0.committedInstType::SimdFloatAlu            0      0.00%     62.86% # Class of committed instruction. (Count)
system.cpu.commitStats0.committedInstType::SimdFloatCmp            0      0.00%     62.86% # Class of committed instruction. (Count)
system.cpu.commitStats0.committedInstType::SimdFloatCvt     14543616      0.97%     63.82% # Class of committed instruction. (Count)
system.cpu.commitStats0.committedInstType::SimdFloatDiv       314112      0.02%     63.85% # Class of committed instruction. (Count)
system.cpu.commitStats0.committedInstType::SimdFloatMisc            0      0.00%     63.85% # Class of committed instruction. (Count)
system.cpu.commitStats0.committedInstType::SimdFloatMult      4737024      0.31%     64.16% # Class of committed instruction. (Count)
system.cpu.commitStats0.committedInstType::SimdFloatMultAcc            0      0.00%     64.16% # Class of committed instruction. (Count)
system.cpu.commitStats0.committedInstType::SimdFloatMatMultAcc            0      0.00%     64.16% # Class of committed instruction. (Count)
system.cpu.commitStats0.committedInstType::SimdFloatSqrt            0      0.00%     64.16% # Class of committed instruction. (Count)
system.cpu.commitStats0.committedInstType::SimdReduceAdd            0      0.00%     64.16% # Class of committed instruction. (Count)
system.cpu.commitStats0.committedInstType::SimdReduceAlu            0      0.00%     64.16% # Class of committed instruction. (Count)
system.cpu.commitStats0.committedInstType::SimdReduceCmp            0      0.00%     64.16% # Class of committed instruction. (Count)
system.cpu.commitStats0.committedInstType::SimdFloatReduceAdd            0      0.00%     64.16% # Class of committed instruction. (Count)
system.cpu.commitStats0.committedInstType::SimdFloatReduceCmp            0      0.00%     64.16% # Class of committed instruction. (Count)
system.cpu.commitStats0.committedInstType::SimdAes            0      0.00%     64.16% # Class of committed instruction. (Count)
system.cpu.commitStats0.committedInstType::SimdAesMix            0      0.00%     64.16% # Class of committed instruction. (Count)
system.cpu.commitStats0.committedInstType::SimdSha1Hash            0      0.00%     64.16% # Class of committed instruction. (Count)
system.cpu.commitStats0.committedInstType::SimdSha1Hash2            0      0.00%     64.16% # Class of committed instruction. (Count)
system.cpu.commitStats0.committedInstType::SimdSha256Hash            0      0.00%     64.16% # Class of committed instruction. (Count)
system.cpu.commitStats0.committedInstType::SimdSha256Hash2            0      0.00%     64.16% # Class of committed instruction. (Count)
system.cpu.commitStats0.committedInstType::SimdShaSigma2            0      0.00%     64.16% # Class of committed instruction. (Count)
system.cpu.commitStats0.committedInstType::SimdShaSigma3            0      0.00%     64.16% # Class of committed instruction. (Count)
system.cpu.commitStats0.committedInstType::SimdPredAlu            0      0.00%     64.16% # Class of committed instruction. (Count)
system.cpu.commitStats0.committedInstType::Matrix            0      0.00%     64.16% # Class of committed instruction. (Count)
system.cpu.commitStats0.committedInstType::MatrixMov            0      0.00%     64.16% # Class of committed instruction. (Count)
system.cpu.commitStats0.committedInstType::MatrixOP            0      0.00%     64.16% # Class of committed instruction. (Count)
system.cpu.commitStats0.committedInstType::MemRead    304321508     20.22%     84.38% # Class of committed instruction. (Count)
system.cpu.commitStats0.committedInstType::MemWrite    190717585     12.67%     97.05% # Class of committed instruction. (Count)
system.cpu.commitStats0.committedInstType::FloatMemRead     34179340      2.27%     99.32% # Class of committed instruction. (Count)
system.cpu.commitStats0.committedInstType::FloatMemWrite     10176279      0.68%    100.00% # Class of committed instruction. (Count)
system.cpu.commitStats0.committedInstType::IprAccess            0      0.00%    100.00% # Class of committed instruction. (Count)
system.cpu.commitStats0.committedInstType::InstPrefetch            0      0.00%    100.00% # Class of committed instruction. (Count)
system.cpu.commitStats0.committedInstType::SimdUnitStrideLoad            0      0.00%    100.00% # Class of committed instruction. (Count)
system.cpu.commitStats0.committedInstType::SimdUnitStrideStore            0      0.00%    100.00% # Class of committed instruction. (Count)
system.cpu.commitStats0.committedInstType::SimdUnitStrideMaskLoad            0      0.00%    100.00% # Class of committed instruction. (Count)
system.cpu.commitStats0.committedInstType::SimdUnitStrideMaskStore            0      0.00%    100.00% # Class of committed instruction. (Count)
system.cpu.commitStats0.committedInstType::SimdStridedLoad            0      0.00%    100.00% # Class of committed instruction. (Count)
system.cpu.commitStats0.committedInstType::SimdStridedStore            0      0.00%    100.00% # Class of committed instruction. (Count)
system.cpu.commitStats0.committedInstType::SimdIndexedLoad            0      0.00%    100.00% # Class of committed instruction. (Count)
system.cpu.commitStats0.committedInstType::SimdIndexedStore            0      0.00%    100.00% # Class of committed instruction. (Count)
system.cpu.commitStats0.committedInstType::SimdWholeRegisterLoad            0      0.00%    100.00% # Class of committed instruction. (Count)
system.cpu.commitStats0.committedInstType::SimdWholeRegisterStore            0      0.00%    100.00% # Class of committed instruction. (Count)
system.cpu.commitStats0.committedInstType::SimdUnitStrideFaultOnlyFirstLoad            0      0.00%    100.00% # Class of committed instruction. (Count)
system.cpu.commitStats0.committedInstType::SimdUnitStrideSegmentedLoad            0      0.00%    100.00% # Class of committed instruction. (Count)
system.cpu.commitStats0.committedInstType::SimdUnitStrideSegmentedStore            0      0.00%    100.00% # Class of committed instruction. (Count)
system.cpu.commitStats0.committedInstType::SimdExt            0      0.00%    100.00% # Class of committed instruction. (Count)
system.cpu.commitStats0.committedInstType::SimdFloatExt            0      0.00%    100.00% # Class of committed instruction. (Count)
system.cpu.commitStats0.committedInstType::SimdConfig            0      0.00%    100.00% # Class of committed instruction. (Count)
system.cpu.commitStats0.committedInstType::total   1505014772                       # Class of committed instruction. (Count)
system.cpu.commitStats0.committedControl::IsControl    113730778                       # Class of control type instructions committed (Count)
system.cpu.commitStats0.committedControl::IsDirectControl     68336756                       # Class of control type instructions committed (Count)
system.cpu.commitStats0.committedControl::IsIndirectControl     45394022                       # Class of control type instructions committed (Count)
system.cpu.commitStats0.committedControl::IsCondControl     22993658                       # Class of control type instructions committed (Count)
system.cpu.commitStats0.committedControl::IsUncondControl     90737120                       # Class of control type instructions committed (Count)
system.cpu.commitStats0.committedControl::IsCall     45037750                       # Class of control type instructions committed (Count)
system.cpu.commitStats0.committedControl::IsReturn     45037746                       # Class of control type instructions committed (Count)
system.cpu.dcache.demandHits::cpu.data      310909400                       # number of demand (read+write) hits (Count)
system.cpu.dcache.demandHits::total         310909400                       # number of demand (read+write) hits (Count)
system.cpu.dcache.overallHits::cpu.data     310909400                       # number of overall hits (Count)
system.cpu.dcache.overallHits::total        310909400                       # number of overall hits (Count)
system.cpu.dcache.demandMisses::cpu.data      6815403                       # number of demand (read+write) misses (Count)
system.cpu.dcache.demandMisses::total         6815403                       # number of demand (read+write) misses (Count)
system.cpu.dcache.overallMisses::cpu.data      6815403                       # number of overall misses (Count)
system.cpu.dcache.overallMisses::total        6815403                       # number of overall misses (Count)
system.cpu.dcache.demandMissLatency::cpu.data 345764466867                       # number of demand (read+write) miss ticks (Tick)
system.cpu.dcache.demandMissLatency::total 345764466867                       # number of demand (read+write) miss ticks (Tick)
system.cpu.dcache.overallMissLatency::cpu.data 345764466867                       # number of overall miss ticks (Tick)
system.cpu.dcache.overallMissLatency::total 345764466867                       # number of overall miss ticks (Tick)
system.cpu.dcache.demandAccesses::cpu.data    317724803                       # number of demand (read+write) accesses (Count)
system.cpu.dcache.demandAccesses::total     317724803                       # number of demand (read+write) accesses (Count)
system.cpu.dcache.overallAccesses::cpu.data    317724803                       # number of overall (read+write) accesses (Count)
system.cpu.dcache.overallAccesses::total    317724803                       # number of overall (read+write) accesses (Count)
system.cpu.dcache.demandMissRate::cpu.data     0.021451                       # miss rate for demand accesses (Ratio)
system.cpu.dcache.demandMissRate::total      0.021451                       # miss rate for demand accesses (Ratio)
system.cpu.dcache.overallMissRate::cpu.data     0.021451                       # miss rate for overall accesses (Ratio)
system.cpu.dcache.overallMissRate::total     0.021451                       # miss rate for overall accesses (Ratio)
system.cpu.dcache.demandAvgMissLatency::cpu.data 50732.798467                       # average overall miss latency in ticks ((Tick/Count))
system.cpu.dcache.demandAvgMissLatency::total 50732.798467                       # average overall miss latency in ticks ((Tick/Count))
system.cpu.dcache.overallAvgMissLatency::cpu.data 50732.798467                       # average overall miss latency ((Tick/Count))
system.cpu.dcache.overallAvgMissLatency::total 50732.798467                       # average overall miss latency ((Tick/Count))
system.cpu.dcache.blockedCycles::no_mshrs      1261927                       # number of cycles access was blocked (Cycle)
system.cpu.dcache.blockedCycles::no_targets        36715                       # number of cycles access was blocked (Cycle)
system.cpu.dcache.blockedCauses::no_mshrs         1419                       # number of times access was blocked (Count)
system.cpu.dcache.blockedCauses::no_targets           35                       # number of times access was blocked (Count)
system.cpu.dcache.avgBlocked::no_mshrs     889.307259                       # average number of cycles each access was blocked ((Cycle/Count))
system.cpu.dcache.avgBlocked::no_targets         1049                       # average number of cycles each access was blocked ((Cycle/Count))
system.cpu.dcache.writebacks::writebacks      4247016                       # number of writebacks (Count)
system.cpu.dcache.writebacks::total           4247016                       # number of writebacks (Count)
system.cpu.dcache.demandMshrHits::cpu.data        47048                       # number of demand (read+write) MSHR hits (Count)
system.cpu.dcache.demandMshrHits::total         47048                       # number of demand (read+write) MSHR hits (Count)
system.cpu.dcache.overallMshrHits::cpu.data        47048                       # number of overall MSHR hits (Count)
[...]
system.l2.ReadSharedReq.accesses::total       6516375                       # number of ReadSharedReq accesses(hits+misses) (Count)
system.l2.ReadSharedReq.missRate::cpu.data     0.096387                       # miss rate for ReadSharedReq accesses (Ratio)
system.l2.ReadSharedReq.missRate::total      0.096387                       # miss rate for ReadSharedReq accesses (Ratio)
system.l2.ReadSharedReq.avgMissLatency::cpu.data 345614.171830                       # average ReadSharedReq miss latency ((Tick/Count))
system.l2.ReadSharedReq.avgMissLatency::total 345614.171830                       # average ReadSharedReq miss latency ((Tick/Count))
system.l2.ReadSharedReq.mshrMisses::cpu.data       628091                       # number of ReadSharedReq MSHR misses (Count)
system.l2.ReadSharedReq.mshrMisses::total       628091                       # number of ReadSharedReq MSHR misses (Count)
system.l2.ReadSharedReq.mshrMissLatency::cpu.data 213047772318                       # number of ReadSharedReq MSHR miss ticks (Tick)
system.l2.ReadSharedReq.mshrMissLatency::total 213047772318                       # number of ReadSharedReq MSHR miss ticks (Tick)
system.l2.ReadSharedReq.mshrMissRate::cpu.data     0.096387                       # mshr miss rate for ReadSharedReq accesses (Ratio)
system.l2.ReadSharedReq.mshrMissRate::total     0.096387                       # mshr miss rate for ReadSharedReq accesses (Ratio)
system.l2.ReadSharedReq.avgMshrMissLatency::cpu.data 339198.893660                       # average ReadSharedReq mshr miss latency ((Tick/Count))
system.l2.ReadSharedReq.avgMshrMissLatency::total 339198.893660                       # average ReadSharedReq mshr miss latency ((Tick/Count))
system.l2.UpgradeReq.hits::cpu.data                 4                       # number of UpgradeReq hits (Count)
system.l2.UpgradeReq.hits::total                    4                       # number of UpgradeReq hits (Count)
system.l2.UpgradeReq.accesses::cpu.data             4                       # number of UpgradeReq accesses(hits+misses) (Count)
system.l2.UpgradeReq.accesses::total                4                       # number of UpgradeReq accesses(hits+misses) (Count)
system.l2.WritebackClean.hits::writebacks        10976                       # number of WritebackClean hits (Count)
system.l2.WritebackClean.hits::total            10976                       # number of WritebackClean hits (Count)
system.l2.WritebackClean.accesses::writebacks        10976                       # number of WritebackClean accesses(hits+misses) (Count)
system.l2.WritebackClean.accesses::total        10976                       # number of WritebackClean accesses(hits+misses) (Count)
system.l2.WritebackDirty.hits::writebacks      4247016                       # number of WritebackDirty hits (Count)
system.l2.WritebackDirty.hits::total          4247016                       # number of WritebackDirty hits (Count)
system.l2.WritebackDirty.accesses::writebacks      4247016                       # number of WritebackDirty accesses(hits+misses) (Count)
system.l2.WritebackDirty.accesses::total      4247016                       # number of WritebackDirty accesses(hits+misses) (Count)
system.l2.power_state.pwrStateResidencyTicks::UNDEFINED 474672981048                       # Cumulative time (in ticks) in various power states (Tick)
system.l2.tags.tagsInUse                 32350.177851                       # Average ticks per tags in use ((Tick/Count))
system.l2.tags.totalRefs                     13556066                       # Total number of references to valid blocks. (Count)
system.l2.tags.sampledRefs                     783358                       # Sample count of references to valid blocks. (Count)
system.l2.tags.avgRefs                      17.305071                       # Average number of references to valid blocks. ((Count/Count))
system.l2.tags.warmupTick                      430000                       # The tick when the warmup percentage was hit. (Tick)
system.l2.tags.occupancies::writebacks      35.263515                       # Average occupied blocks per tick, per requestor ((Count/Tick))
system.l2.tags.occupancies::cpu.inst        72.442286                       # Average occupied blocks per tick, per requestor ((Count/Tick))
system.l2.tags.occupancies::cpu.data     32242.472050                       # Average occupied blocks per tick, per requestor ((Count/Tick))
system.l2.tags.avgOccs::writebacks           0.001076                       # Average percentage of cache occupancy ((Ratio/Tick))
system.l2.tags.avgOccs::cpu.inst             0.002211                       # Average percentage of cache occupancy ((Ratio/Tick))
system.l2.tags.avgOccs::cpu.data             0.983962                       # Average percentage of cache occupancy ((Ratio/Tick))
system.l2.tags.avgOccs::total                0.987249                       # Average percentage of cache occupancy ((Ratio/Tick))
system.l2.tags.occupanciesTaskId::1024          32768                       # Occupied blocks per task id (Count)
system.l2.tags.ageTaskId_1024::0                   44                       # Occupied blocks per task id, per block age (Count)
system.l2.tags.ageTaskId_1024::1                  300                       # Occupied blocks per task id, per block age (Count)
system.l2.tags.ageTaskId_1024::2                  485                       # Occupied blocks per task id, per block age (Count)
system.l2.tags.ageTaskId_1024::3                 2391                       # Occupied blocks per task id, per block age (Count)
system.l2.tags.ageTaskId_1024::4                29548                       # Occupied blocks per task id, per block age (Count)
system.l2.tags.ratioOccsTaskId::1024                1                       # Ratio of occupied blocks and all blocks, per task id (Ratio)
system.l2.tags.tagAccesses                  109231910                       # Number of tag accesses (Count)
system.l2.tags.dataAccesses                 109231910                       # Number of data accesses (Count)
system.l2.tags.power_state.pwrStateResidencyTicks::UNDEFINED 474672981048                       # Cumulative time (in ticks) in various power states (Tick)
system.mem_ctrls.bytesRead::cpu.inst           189760                       # Number of bytes read from this memory (Byte)
system.mem_ctrls.bytesRead::cpu.data         49852032                       # Number of bytes read from this memory (Byte)
system.mem_ctrls.bytesRead::total            50041792                       # Number of bytes read from this memory (Byte)
system.mem_ctrls.bytesInstRead::cpu.inst       189760                       # Number of instructions bytes read from this memory (Byte)
system.mem_ctrls.bytesInstRead::total          189760                       # Number of instructions bytes read from this memory (Byte)
system.mem_ctrls.bytesWritten::writebacks     10828928                       # Number of bytes written to this memory (Byte)
system.mem_ctrls.bytesWritten::total         10828928                       # Number of bytes written to this memory (Byte)
system.mem_ctrls.numReads::cpu.inst              2965                       # Number of read requests responded to by this memory (Count)
system.mem_ctrls.numReads::cpu.data            778938                       # Number of read requests responded to by this memory (Count)
system.mem_ctrls.numReads::total               781903                       # Number of read requests responded to by this memory (Count)
system.mem_ctrls.numWrites::writebacks         169202                       # Number of write requests responded to by this memory (Count)
system.mem_ctrls.numWrites::total              169202                       # Number of write requests responded to by this memory (Count)
system.mem_ctrls.bwRead::cpu.inst              399770                       # Total read bandwidth from this memory ((Byte/Second))
system.mem_ctrls.bwRead::cpu.data           105023951                       # Total read bandwidth from this memory ((Byte/Second))
system.mem_ctrls.bwRead::total              105423721                       # Total read bandwidth from this memory ((Byte/Second))
system.mem_ctrls.bwInstRead::cpu.inst          399770                       # Instruction read bandwidth from this memory ((Byte/Second))
system.mem_ctrls.bwInstRead::total             399770                       # Instruction read bandwidth from this memory ((Byte/Second))
system.mem_ctrls.bwWrite::writebacks         22813449                       # Write bandwidth from this memory ((Byte/Second))
system.mem_ctrls.bwWrite::total              22813449                       # Write bandwidth from this memory ((Byte/Second))
system.mem_ctrls.bwTotal::writebacks         22813449                       # Total bandwidth to/from this memory ((Byte/Second))
system.mem_ctrls.bwTotal::cpu.inst             399770                       # Total bandwidth to/from this memory ((Byte/Second))
system.mem_ctrls.bwTotal::cpu.data          105023951                       # Total bandwidth to/from this memory ((Byte/Second))
system.mem_ctrls.bwTotal::total             128237170                       # Total bandwidth to/from this memory ((Byte/Second))
system.mem_ctrls.power_state.pwrStateResidencyTicks::UNDEFINED 474672981048                       # Cumulative time (in ticks) in various power states (Tick)
system.membus.transDist::ReadResp              631056                       # Transaction distribution (Count)
system.membus.transDist::WritebackDirty        169202                       # Transaction distribution (Count)
system.membus.transDist::CleanEvict            579647                       # Transaction distribution (Count)
system.membus.transDist::ReadExReq             150847                       # Transaction distribution (Count)
system.membus.transDist::ReadExResp            150847                       # Transaction distribution (Count)
system.membus.transDist::ReadSharedReq         631056                       # Transaction distribution (Count)
system.membus.pktCount_system.l2.mem_side_port::system.mem_ctrls.port      2312655                       # Packet count per connected requestor and responder (Count)
system.membus.pktCount_system.l2.mem_side_port::total      2312655                       # Packet count per connected requestor and responder (Count)
system.membus.pktCount::total                 2312655                       # Packet count per connected requestor and responder (Count)
system.membus.pktSize_system.l2.mem_side_port::system.mem_ctrls.port     60870720                       # Cumulative packet size per connected requestor and responder (Byte)
system.membus.pktSize_system.l2.mem_side_port::total     60870720                       # Cumulative packet size per connected requestor and responder (Byte)
system.membus.pktSize::total                 60870720                       # Cumulative packet size per connected requestor and responder (Byte)
system.membus.snoops                                0                       # Total snoops (Count)
system.membus.snoopTraffic                          0                       # Total snoop traffic (Byte)
system.membus.snoopFanout::samples             781903                       # Request fanout histogram (Count)
system.membus.snoopFanout::mean                     0                       # Request fanout histogram (Count)
system.membus.snoopFanout::stdev                    0                       # Request fanout histogram (Count)
system.membus.snoopFanout::underflows               0      0.00%      0.00% # Request fanout histogram (Count)
system.membus.snoopFanout::0                   781903    100.00%    100.00% # Request fanout histogram (Count)
system.membus.snoopFanout::1                        0      0.00%    100.00% # Request fanout histogram (Count)
system.membus.snoopFanout::overflows                0      0.00%    100.00% # Request fanout histogram (Count)
system.membus.snoopFanout::min_value                0                       # Request fanout histogram (Count)
system.membus.snoopFanout::max_value                0                       # Request fanout histogram (Count)
system.membus.snoopFanout::total               781903                       # Request fanout histogram (Count)
system.membus.power_state.pwrStateResidencyTicks::UNDEFINED 474672981048                       # Cumulative time (in ticks) in various power states (Tick)
system.membus.reqLayer2.occupancy          7367482837                       # Layer occupancy (ticks) (Tick)
system.membus.reqLayer2.utilization               0.0                       # Layer utilization (Ratio)
system.membus.respLayer1.occupancy        10825766806                       # Layer occupancy (ticks) (Tick)
system.membus.respLayer1.utilization              0.0                       # Layer utilization (Ratio)
system.membus.snoop_filter.totRequests        1530752                       # Total number of requests made to the snoop filter. (Count)
system.membus.snoop_filter.hitSingleRequests       748850                       # Number of requests hitting in the snoop filter with a single holder of the requested data. (Count)
system.membus.snoop_filter.hitMultiRequests            0                       # Number of requests hitting in the snoop filter with multiple (>1) holders of the requested data. (Count)
system.membus.snoop_filter.totSnoops                0                       # Total number of snoops made to the snoop filter. (Count)
system.membus.snoop_filter.hitSingleSnoops            0                       # Number of snoops hitting in the snoop filter with a single holder of the requested data. (Count)
system.membus.snoop_filter.hitMultiSnoops            0                       # Number of snoops hitting in the snoop filter with multiple (>1) holders of the requested data. (Count)
system.tol2bus.transDist::ReadResp            6527872                       # Transaction distribution (Count)
system.tol2bus.transDist::WritebackDirty      4416218                       # Transaction distribution (Count)
system.tol2bus.transDist::WritebackClean        10981                       # Transaction distribution (Count)
system.tol2bus.transDist::CleanEvict          3102212                       # Transaction distribution (Count)
system.tol2bus.transDist::UpgradeReq                4                       # Transaction distribution (Count)
system.tol2bus.transDist::UpgradeResp               4                       # Transaction distribution (Count)
system.tol2bus.transDist::ReadExReq            251977                       # Transaction distribution (Count)
system.tol2bus.transDist::ReadExResp           251977                       # Transaction distribution (Count)
system.tol2bus.transDist::ReadCleanReq          11498                       # Transaction distribution (Count)
system.tol2bus.transDist::ReadSharedReq       6516375                       # Transaction distribution (Count)
system.tol2bus.pktCount_system.cpu.icache.mem_side_port::system.l2.cpu_side_port        33967                       # Packet count per connected requestor and responder (Count)
system.tol2bus.pktCount_system.cpu.dcache.mem_side_port::system.l2.cpu_side_port     20304552                       # Packet count per connected requestor and responder (Count)
system.tol2bus.pktCount::total               20338519                       # Packet count per connected requestor and responder (Count)
system.tol2bus.pktSize_system.cpu.icache.mem_side_port::system.l2.cpu_side_port      1438016                       # Cumulative packet size per connected requestor and responder (Byte)
system.tol2bus.pktSize_system.cpu.dcache.mem_side_port::system.l2.cpu_side_port    704983552                       # Cumulative packet size per connected requestor and responder (Byte)
system.tol2bus.pktSize::total               706421568                       # Cumulative packet size per connected requestor and responder (Byte)
system.tol2bus.snoops                          750599                       # Total snoops (Count)
system.tol2bus.snoopTraffic                  10829504                       # Total snoop traffic (Byte)
system.tol2bus.snoopFanout::samples           7530444                       # Request fanout histogram (Count)
system.tol2bus.snoopFanout::mean             0.000587                       # Request fanout histogram (Count)
system.tol2bus.snoopFanout::stdev            0.024217                       # Request fanout histogram (Count)
system.tol2bus.snoopFanout::underflows              0      0.00%      0.00% # Request fanout histogram (Count)
system.tol2bus.snoopFanout::0                 7526025     99.94%     99.94% # Request fanout histogram (Count)
system.tol2bus.snoopFanout::1                    4419      0.06%    100.00% # Request fanout histogram (Count)
system.tol2bus.snoopFanout::2                       0      0.00%    100.00% # Request fanout histogram (Count)
system.tol2bus.snoopFanout::3                       0      0.00%    100.00% # Request fanout histogram (Count)
system.tol2bus.snoopFanout::4                       0      0.00%    100.00% # Request fanout histogram (Count)
system.tol2bus.snoopFanout::overflows               0      0.00%    100.00% # Request fanout histogram (Count)
system.tol2bus.snoopFanout::min_value               0                       # Request fanout histogram (Count)
system.tol2bus.snoopFanout::max_value               1                       # Request fanout histogram (Count)
system.tol2bus.snoopFanout::total             7530444                       # Request fanout histogram (Count)
system.tol2bus.power_state.pwrStateResidencyTicks::UNDEFINED 474672981048                       # Cumulative time (in ticks) in various power states (Tick)
system.tol2bus.reqLayer0.occupancy         6909371397                       # Layer occupancy (ticks) (Tick)
system.tol2bus.reqLayer0.utilization              0.0                       # Layer utilization (Ratio)
system.tol2bus.respLayer0.occupancy          10796931                       # Layer occupancy (ticks) (Tick)
system.tol2bus.respLayer0.utilization             0.0                       # Layer utilization (Ratio)
system.tol2bus.respLayer1.occupancy        6355483780                       # Layer occupancy (ticks) (Tick)
system.tol2bus.respLayer1.utilization             0.0                       # Layer utilization (Ratio)
system.tol2bus.snoop_filter.totRequests      13558675                       # Total number of requests made to the snoop filter. (Count)
system.tol2bus.snoop_filter.hitSingleRequests      6778824                       # Number of requests hitting in the snoop filter with a single holder of the requested data. (Count)
system.tol2bus.snoop_filter.hitMultiRequests         2660                       # Number of requests hitting in the snoop filter with multiple (>1) holders of the requested data. (Count)
system.tol2bus.snoop_filter.totSnoops            1756                       # Total number of snoops made to the snoop filter. (Count)
system.tol2bus.snoop_filter.hitSingleSnoops         1756                       # Number of snoops hitting in the snoop filter with a single holder of the requested data. (Count)
system.tol2bus.snoop_filter.hitMultiSnoops            0                       # Number of snoops hitting in the snoop filter with multiple (>1) holders of the requested data. (Count)
system.voltage_domain.voltage                       1                       # Voltage in Volts (Volt)
system.workload.inst.arm                            0                       # number of arm instructions executed (Count)
system.workload.inst.quiesce                        0                       # number of quiesce instructions executed (Count)

---------- End Simulation Statistics   ----------
