
---------- Begin Simulation Statistics ----------
simSeconds                                   1.172898                       # Number of seconds simulated (Second)
simTicks                                 1172897878471                       # Number of ticks simulated (Tick)
finalTick                                1172897878471                       # Number of ticks from beginning of simulation (restored from checkpoints and never reset) (Tick)
simFreq                                  1000000000000                       # The number of ticks per simulated second ((Tick/Second))
hostSeconds                                  10204.75                       # Real time elapsed on the host (Second)
hostTickRate                                114936409                       # The number of ticks simulated per host second (ticks/s) ((Tick/Second))
hostMemory                                    2104860                       # Number of bytes of host memory used (Byte)
simInsts                                   2383520870                       # Number of instructions simulated (Count)
simOps                                     3989108867                       # Number of ops (including micro ops) simulated (Count)
hostInstRate                                   233570                       # Simulator instruction rate (inst/s) ((Count/Second))
hostOpRate                                     390907                       # Simulator op (including micro ops) rate (op/s) ((Count/Second))
system.clk_domain.clock                          2500                       # Clock period in ticks (Tick)
system.cpu.numCycles                       3747277568                       # Number of cpu cycles simulated (Cycle)
system.cpu.cpi                               1.572161                       # CPI: cycles per instruction (core level) ((Cycle/Count))
system.cpu.ipc                               0.636067                       # IPC: instructions per cycle (core level) ((Count/Cycle))
system.cpu.numWorkItemsStarted                      0                       # Number of work items this cpu started (Count)
system.cpu.numWorkItemsCompleted                    0                       # Number of work items this cpu completed (Count)
system.cpu.instsAdded                      4008226742                       # Number of instructions added to the IQ (excludes non-spec) (Count)
system.cpu.nonSpecInstsAdded                    29891                       # Number of non-speculative instructions added to the IQ (Count)
system.cpu.instsIssued                     4002086854                       # Number of instructions issued (Count)
system.cpu.squashedInstsIssued                  23983                       # Number of squashed instructions issued (Count)
system.cpu.squashedInstsExamined             19147760                       # Number of squashed instructions iterated over during squash; mainly for profiling (Count)
system.cpu.squashedOperandsExamined          27557320                       # Number of squashed operands that are examined and possibly removed from graph (Count)
system.cpu.squashedNonSpecRemoved               23084                       # Number of squashed non-spec instructions that were removed (Count)
system.cpu.numIssuedDist::samples          3740020188                       # Number of insts issued each cycle (Count)
system.cpu.numIssuedDist::mean               1.070071                       # Number of insts issued each cycle (Count)
system.cpu.numIssuedDist::stdev              1.735006                       # Number of insts issued each cycle (Count)
system.cpu.numIssuedDist::underflows                0      0.00%      0.00% # Number of insts issued each cycle (Count)
system.cpu.numIssuedDist::0                2336798682     62.48%     62.48% # Number of insts issued each cycle (Count)
system.cpu.numIssuedDist::1                 392867769     10.50%     72.99% # Number of insts issued each cycle (Count)
system.cpu.numIssuedDist::2                 317649662      8.49%     81.48% # Number of insts issued each cycle (Count)
system.cpu.numIssuedDist::3                 240719317      6.44%     87.91% # Number of insts issued each cycle (Count)
system.cpu.numIssuedDist::4                 190591443      5.10%     93.01% # Number of insts issued each cycle (Count)
system.cpu.numIssuedDist::5                 129104897      3.45%     96.46% # Number of insts issued each cycle (Count)
system.cpu.numIssuedDist::6                  91974443      2.46%     98.92% # Number of insts issued each cycle (Count)
system.cpu.numIssuedDist::7                  30486905      0.82%     99.74% # Number of insts issued each cycle (Count)
system.cpu.numIssuedDist::8                   9827070      0.26%    100.00% # Number of insts issued each cycle (Count)
system.cpu.numIssuedDist::overflows                 0      0.00%    100.00% # Number of insts issued each cycle (Count)
system.cpu.numIssuedDist::min_value                 0                       # Number of insts issued each cycle (Count)
system.cpu.numIssuedDist::max_value                 8                       # Number of insts issued each cycle (Count)
system.cpu.numIssuedDist::total            3740020188                       # Number of insts issued each cycle (Count)
system.cpu.statFuBusy::No_OpClass                   0      0.00%      0.00% # attempts to use FU when none available (Count)
system.cpu.statFuBusy::IntAlu                 5211606     17.44%     17.44% # attempts to use FU when none available (Count)
system.cpu.statFuBusy::IntMult                      0      0.00%     17.44% # attempts to use FU when none available (Count)
system.cpu.statFuBusy::IntDiv                       0      0.00%     17.44% # attempts to use FU when none available (Count)
system.cpu.statFuBusy::FloatAdd                     0      0.00%     17.44% # attempts to use FU when none available (Count)
system.cpu.statFuBusy::FloatCmp                     0      0.00%     17.44% # attempts to use FU when none available (Count)
system.cpu.statFuBusy::FloatCvt                     0      0.00%     17.44% # attempts to use FU when none available (Count)
system.cpu.statFuBusy::FloatMult                    0      0.00%     17.44% # attempts to use FU when none available (Count)
system.cpu.statFuBusy::FloatMultAcc                 0      0.00%     17.44% # attempts to use FU when none available (Count)
system.cpu.statFuBusy::FloatDiv                     0      0.00%     17.44% # attempts to use FU when none available (Count)
system.cpu.statFuBusy::FloatMisc                    0      0.00%     17.44% # attempts to use FU when none available (Count)
system.cpu.statFuBusy::FloatSqrt                    0      0.00%     17.44% # attempts to use FU when none available (Count)
system.cpu.statFuBusy::SimdAdd                      0      0.00%     17.44% # attempts to use FU when none available (Count)
system.cpu.statFuBusy::SimdAddAcc                   0      0.00%     17.44% # attempts to use FU when none available (Count)
system.cpu.statFuBusy::SimdAlu                    577      0.00%     17.45% # attempts to use FU when none available (Count)
system.cpu.statFuBusy::SimdCmp                      0      0.00%     17.45% # attempts to use FU when none available (Count)
system.cpu.statFuBusy::SimdCvt                      5      0.00%     17.45% # attempts to use FU when none available (Count)
system.cpu.statFuBusy::SimdMisc                     1      0.00%     17.45% # attempts to use FU when none available (Count)
system.cpu.statFuBusy::SimdMult                     0      0.00%     17.45% # attempts to use FU when none available (Count)
system.cpu.statFuBusy::SimdMultAcc                  0      0.00%     17.45% # attempts to use FU when none available (Count)
system.cpu.statFuBusy::SimdMatMultAcc               0      0.00%     17.45% # attempts to use FU when none available (Count)
system.cpu.statFuBusy::SimdShift                    0      0.00%     17.45% # attempts to use FU when none available (Count)
system.cpu.statFuBusy::SimdShiftAcc                 0      0.00%     17.45% # attempts to use FU when none available (Count)
system.cpu.statFuBusy::SimdDiv                      0      0.00%     17.45% # attempts to use FU when none available (Count)
system.cpu.statFuBusy::SimdSqrt                     0      0.00%     17.45% # attempts to use FU when none available (Count)
system.cpu.statFuBusy::SimdFloatAdd                 0      0.00%     17.45% # attempts to use FU when none available (Count)
system.cpu.statFuBusy::SimdFloatAlu                 0      0.00%     17.45% # attempts to use FU when none available (Count)
system.cpu.statFuBusy::SimdFloatCmp                 0      0.00%     17.45% # attempts to use FU when none available (Count)
system.cpu.statFuBusy::SimdFloatCvt                 0      0.00%     17.45% # attempts to use FU when none available (Count)
system.cpu.statFuBusy::SimdFloatDiv                 0      0.00%     17.45% # attempts to use FU when none available (Count)
system.cpu.statFuBusy::SimdFloatMisc                0      0.00%     17.45% # attempts to use FU when none available (Count)
system.cpu.statFuBusy::SimdFloatMult                0      0.00%     17.45% # attempts to use FU when none available (Count)
system.cpu.statFuBusy::SimdFloatMultAcc             0      0.00%     17.45% # attempts to use FU when none available (Count)
system.cpu.statFuBusy::SimdFloatMatMultAcc            0      0.00%     17.45% # attempts to use FU when none available (Count)
system.cpu.statFuBusy::SimdFloatSqrt                0      0.00%     17.45% # attempts to use FU when none available (Count)
system.cpu.statFuBusy::SimdReduceAdd                0      0.00%     17.45% # attempts to use FU when none available (Count)
system.cpu.statFuBusy::SimdReduceAlu                0      0.00%     17.45% # attempts to use FU when none available (Count)
system.cpu.statFuBusy::SimdReduceCmp                0      0.00%     17.45% # attempts to use FU when none available (Count)
system.cpu.statFuBusy::SimdFloatReduceAdd            0      0.00%     17.45% # attempts to use FU when none available (Count)
system.cpu.statFuBusy::SimdFloatReduceCmp            0      0.00%     17.45% # attempts to use FU when none available (Count)
system.cpu.statFuBusy::SimdAes                      0      0.00%     17.45% # attempts to use FU when none available (Count)
system.cpu.statFuBusy::SimdAesMix                   0      0.00%     17.45% # attempts to use FU when none available (Count)
system.cpu.statFuBusy::SimdSha1Hash                 0      0.00%     17.45% # attempts to use FU when none available (Count)
system.cpu.statFuBusy::SimdSha1Hash2                0      0.00%     17.45% # attempts to use FU when none available (Count)
system.cpu.statFuBusy::SimdSha256Hash               0      0.00%     17.45% # attempts to use FU when none available (Count)
system.cpu.statFuBusy::SimdSha256Hash2              0      0.00%     17.45% # attempts to use FU when none available (Count)
system.cpu.statFuBusy::SimdShaSigma2                0      0.00%     17.45% # attempts to use FU when none available (Count)
system.cpu.statFuBusy::SimdShaSigma3                0      0.00%     17.45% # attempts to use FU when none available (Count)
system.cpu.statFuBusy::SimdPredAlu                  0      0.00%     17.45% # attempts to use FU when none available (Count)
system.cpu.statFuBusy::Matrix                       0      0.00%     17.45% # attempts to use FU when none available (Count)
system.cpu.statFuBusy::MatrixMov                    0      0.00%     17.45% # attempts to use FU when none available (Count)
system.cpu.statFuBusy::MatrixOP                     0      0.00%     17.45% # attempts to use FU when none available (Count)
system.cpu.statFuBusy::MemRead               19081290     63.87%     81.32% # attempts to use FU when none available (Count)
system.cpu.statFuBusy::MemWrite               5513232     18.45%     99.77% # attempts to use FU when none available (Count)
system.cpu.statFuBusy::FloatMemRead             61770      0.21%     99.98% # attempts to use FU when none available (Count)
system.cpu.statFuBusy::FloatMemWrite             6685      0.02%    100.00% # attempts to use FU when none available (Count)
system.cpu.statFuBusy::IprAccess                    0      0.00%    100.00% # attempts to use FU when none available (Count)
system.cpu.statFuBusy::InstPrefetch                 0      0.00%    100.00% # attempts to use FU when none available (Count)
system.cpu.statFuBusy::SimdUnitStrideLoad            0      0.00%    100.00% # attempts to use FU when none available (Count)
system.cpu.statFuBusy::SimdUnitStrideStore            0      0.00%    100.00% # attempts to use FU when none available (Count)
system.cpu.statFuBusy::SimdUnitStrideMaskLoad            0      0.00%    100.00% # attempts to use FU when none available (Count)
system.cpu.statFuBusy::SimdUnitStrideMaskStore            0      0.00%    100.00% # attempts to use FU when none available (Count)
system.cpu.statFuBusy::SimdStridedLoad              0      0.00%    100.00% # attempts to use FU when none available (Count)
system.cpu.statFuBusy::SimdStridedStore             0      0.00%    100.00% # attempts to use FU when none available (Count)
system.cpu.statFuBusy::SimdIndexedLoad              0      0.00%    100.00% # attempts to use FU when none available (Count)
system.cpu.statFuBusy::SimdIndexedStore             0      0.00%    100.00% # attempts to use FU when none available (Count)
system.cpu.statFuBusy::SimdWholeRegisterLoad            0      0.00%    100.00% # attempts to use FU when none available (Count)
system.cpu.statFuBusy::SimdWholeRegisterStore            0      0.00%    100.00% # attempts to use FU when none available (Count)
system.cpu.statFuBusy::SimdUnitStrideFaultOnlyFirstLoad            0      0.00%    100.00% # attempts to use FU when none available (Count)
system.cpu.statFuBusy::SimdUnitStrideSegmentedLoad            0      0.00%    100.00% # attempts to use FU when none available (Count)
system.cpu.statFuBusy::SimdUnitStrideSegmentedStore            0      0.00%    100.00% # attempts to use FU when none available (Count)
system.cpu.statFuBusy::SimdExt                      0      0.00%    100.00% # attempts to use FU when none available (Count)
system.cpu.statFuBusy::SimdFloatExt                 0      0.00%    100.00% # attempts to use FU when none available (Count)
system.cpu.statFuBusy::SimdConfig                   0      0.00%    100.00% # attempts to use FU when none available (Count)
system.cpu.statIssuedInstType_0::No_OpClass       110399      0.00%      0.00% # Number of instructions issued per FU type, per thread (Count)
system.cpu.statIssuedInstType_0::IntAlu    2418471599     60.43%     60.43% # Number of instructions issued per FU type, per thread (Count)
system.cpu.statIssuedInstType_0::IntMult     19256700      0.48%     60.91% # Number of instructions issued per FU type, per thread (Count)
system.cpu.statIssuedInstType_0::IntDiv          4401      0.00%     60.91% # Number of instructions issued per FU type, per thread (Count)
system.cpu.statIssuedInstType_0::FloatAdd     57484044      1.44%     62.35% # Number of instructions issued per FU type, per thread (Count)
system.cpu.statIssuedInstType_0::FloatCmp            0      0.00%     62.35% # Number of instructions issued per FU type, per thread (Count)
system.cpu.statIssuedInstType_0::FloatCvt          700      0.00%     62.35% # Number of instructions issued per FU type, per thread (Count)
system.cpu.statIssuedInstType_0::FloatMult            0      0.00%     62.35% # Number of instructions issued per FU type, per thread (Count)
system.cpu.statIssuedInstType_0::FloatMultAcc            0      0.00%     62.35% # Number of instructions issued per FU type, per thread (Count)
system.cpu.statIssuedInstType_0::FloatDiv            0      0.00%     62.35% # Number of instructions issued per FU type, per thread (Count)
system.cpu.statIssuedInstType_0::FloatMisc            0      0.00%     62.35% # Number of instructions issued per FU type, per thread (Count)
system.cpu.statIssuedInstType_0::FloatSqrt            0      0.00%     62.35% # Number of instructions issued per FU type, per thread (Count)
system.cpu.statIssuedInstType_0::SimdAdd          788      0.00%     62.35% # Number of instructions issued per FU type, per thread (Count)
system.cpu.statIssuedInstType_0::SimdAddAcc            0      0.00%     62.35% # Number of instructions issued per FU type, per thread (Count)
system.cpu.statIssuedInstType_0::SimdAlu     21062320      0.53%     62.88% # Number of instructions issued per FU type, per thread (Count)
system.cpu.statIssuedInstType_0::SimdCmp            0      0.00%     62.88% # Number of instructions issued per FU type, per thread (Count)
system.cpu.statIssuedInstType_0::SimdCvt         7251      0.00%     62.88% # Number of instructions issued per FU type, per thread (Count)
system.cpu.statIssuedInstType_0::SimdMisc     19225742      0.48%     63.36% # Number of instructions issued per FU type, per thread (Count)
system.cpu.statIssuedInstType_0::SimdMult            0      0.00%     63.36% # Number of instructions issued per FU type, per thread (Count)
system.cpu.statIssuedInstType_0::SimdMultAcc            0      0.00%     63.36% # Number of instructions issued per FU type, per thread (Count)
system.cpu.statIssuedInstType_0::SimdMatMultAcc            0      0.00%     63.36% # Number of instructions issued per FU type, per thread (Count)
system.cpu.statIssuedInstType_0::SimdShift            0      0.00%     63.36% # Number of instructions issued per FU type, per thread (Count)
system.cpu.statIssuedInstType_0::SimdShiftAcc            0      0.00%     63.36% # Number of instructions issued per FU type, per thread (Count)
system.cpu.statIssuedInstType_0::SimdDiv            0      0.00%     63.36% # Number of instructions issued per FU type, per thread (Count)
system.cpu.statIssuedInstType_0::SimdSqrt            0      0.00%     63.36% # Number of instructions issued per FU type, per thread (Count)
system.cpu.statIssuedInstType_0::SimdFloatAdd     10463156      0.26%     63.62% # Number of instructions issued per FU type, per thread (Count)
system.cpu.statIssuedInstType_0::SimdFloatAlu            0      0.00%     63.62% # Number of instructions issued per FU type, per thread (Count)
system.cpu.statIssuedInstType_0::SimdFloatCmp            0      0.00%     63.62% # Number of instructions issued per FU type, per thread (Count)
system.cpu.statIssuedInstType_0::SimdFloatCvt     27678660      0.69%     64.31% # Number of instructions issued per FU type, per thread (Count)
system.cpu.statIssuedInstType_0::SimdFloatDiv      1897312      0.05%     64.36% # Number of instructions issued per FU type, per thread (Count)
system.cpu.statIssuedInstType_0::SimdFloatMisc            0      0.00%     64.36% # Number of instructions issued per FU type, per thread (Count)
system.cpu.statIssuedInstType_0::SimdFloatMult      8577186      0.21%     64.57% # Number of instructions issued per FU type, per thread (Count)
system.cpu.statIssuedInstType_0::SimdFloatMultAcc            0      0.00%     64.57% # Number of instructions issued per FU type, per thread (Count)
system.cpu.statIssuedInstType_0::SimdFloatMatMultAcc            0      0.00%     64.57% # Number of instructions issued per FU type, per thread (Count)
system.cpu.statIssuedInstType_0::SimdFloatSqrt           48      0.00%     64.57% # Number of instructions issued per FU type, per thread (Count)
system.cpu.statIssuedInstType_0::SimdReduceAdd            0      0.00%     64.57% # Number of instructions issued per FU type, per thread (Count)
system.cpu.statIssuedInstType_0::SimdReduceAlu            0      0.00%     64.57% # Number of instructions issued per FU type, per thread (Count)
system.cpu.statIssuedInstType_0::SimdReduceCmp            0      0.00%     64.57% # Number of instructions issued per FU type, per thread (Count)
system.cpu.statIssuedInstType_0::SimdFloatReduceAdd            0      0.00%     64.57% # Number of instructions issued per FU type, per thread (Count)
system.cpu.statIssuedInstType_0::SimdFloatReduceCmp            0      0.00%     64.57% # Number of instructions issued per FU type, per thread (Count)
system.cpu.statIssuedInstType_0::SimdAes            0      0.00%     64.57% # Number of instructions issued per FU type, per thread (Count)
system.cpu.statIssuedInstType_0::SimdAesMix            0      0.00%     64.57% # Number of instructions issued per FU type, per thread (Count)
system.cpu.statIssuedInstType_0::SimdSha1Hash            0      0.00%     64.57% # Number of instructions issued per FU type, per thread (Count)
system.cpu.statIssuedInstType_0::SimdSha1Hash2            0      0.00%     64.57% # Number of instructions issued per FU type, per thread (Count)
system.cpu.statIssuedInstType_0::SimdSha256Hash            0      0.00%     64.57% # Number of instructions issued per FU type, per thread (Count)
system.cpu.statIssuedInstType_0::SimdSha256Hash2            0      0.00%     64.57% # Number of instructions issued per FU type, per thread (Count)
system.cpu.statIssuedInstType_0::SimdShaSigma2            0      0.00%     64.57% # Number of instructions issued per FU type, per thread (Count)
system.cpu.statIssuedInstType_0::SimdShaSigma3            0      0.00%     64.57% # Number of instructions issued per FU type, per thread (Count)
system.cpu.statIssuedInstType_0::SimdPredAlu            0      0.00%     64.57% # Number of instructions issued per FU type, per thread (Count)
system.cpu.statIssuedInstType_0::Matrix             0      0.00%     64.57% # Number of instructions issued per FU type, per thread (Count)
system.cpu.statIssuedInstType_0::MatrixMov            0      0.00%     64.57% # Number of instructions issued per FU type, per thread (Count)
system.cpu.statIssuedInstType_0::MatrixOP            0      0.00%     64.57% # Number of instructions issued per FU type, per thread (Count)
system.cpu.statIssuedInstType_0::MemRead    821372401     20.52%     85.10% # Number of instructions issued per FU type, per thread (Count)
system.cpu.statIssuedInstType_0::MemWrite    509052524     12.72%     97.82% # Number of instructions issued per FU type, per thread (Count)
system.cpu.statIssuedInstType_0::FloatMemRead     66216955      1.65%     99.47% # Number of instructions issued per FU type, per thread (Count)
system.cpu.statIssuedInstType_0::FloatMemWrite     21204668      0.53%    100.00% # Number of instructions issued per FU type, per thread (Count)
system.cpu.statIssuedInstType_0::IprAccess            0      0.00%    100.00% # Number of instructions issued per FU type, per thread (Count)
system.cpu.statIssuedInstType_0::InstPrefetch            0      0.00%    100.00% # Number of instructions issued per FU type, per thread (Count)
system.cpu.statIssuedInstType_0::SimdUnitStrideLoad            0      0.00%    100.00% # Number of instructions issued per FU type, per thread (Count)
system.cpu.statIssuedInstType_0::SimdUnitStrideStore            0      0.00%    100.00% # Number of instructions issued per FU type, per thread (Count)
system.cpu.statIssuedInstType_0::SimdUnitStrideMaskLoad            0      0.00%    100.00% # Number of instructions issued per FU type, per thread (Count)
system.cpu.statIssuedInstType_0::SimdUnitStrideMaskStore            0      0.00%    100.00% # Number of instructions issued per FU type, per thread (Count)
system.cpu.statIssuedInstType_0::SimdStridedLoad            0      0.00%    100.00% # Number of instructions issued per FU type, per thread (Count)
system.cpu.statIssuedInstType_0::SimdStridedStore            0      0.00%    100.00% # Number of instructions issued per FU type, per thread (Count)
system.cpu.statIssuedInstType_0::SimdIndexedLoad            0      0.00%    100.00% # Number of instructions issued per FU type, per thread (Count)
system.cpu.statIssuedInstType_0::SimdIndexedStore            0      0.00%    100.00% # Number of instructions issued per FU type, per thread (Count)
system.cpu.statIssuedInstType_0::SimdWholeRegisterLoad            0      0.00%    100.00% # Number of instructions issued per FU type, per thread (Count)
system.cpu.statIssuedInstType_0::SimdWholeRegisterStore            0      0.00%    100.00% # Number of instructions issued per FU type, per thread (Count)
system.cpu.statIssuedInstType_0::SimdUnitStrideFaultOnlyFirstLoad            0      0.00%    100.00% # Number of instructions issued per FU type, per thread (Count)
system.cpu.statIssuedInstType_0::SimdUnitStrideSegmentedLoad            0      0.00%    100.00% # Number of instructions issued per FU type, per thread (Count)
system.cpu.statIssuedInstType_0::SimdUnitStrideSegmentedStore            0      0.00%    100.00% # Number of instructions issued per FU type, per thread (Count)
system.cpu.statIssuedInstType_0::SimdExt            0      0.00%    100.00% # Number of instructions issued per FU type, per thread (Count)
system.cpu.statIssuedInstType_0::SimdFloatExt            0      0.00%    100.00% # Number of instructions issued per FU type, per thread (Count)
system.cpu.statIssuedInstType_0::SimdConfig            0      0.00%    100.00% # Number of instructions issued per FU type, per thread (Count)
system.cpu.statIssuedInstType_0::total     4002086854                       # Number of instructions issued per FU type, per thread (Count)
system.cpu.issueRate                         1.067999                       # Inst issue rate ((Count/Cycle))
system.cpu.fuBusy                            29875166                       # FU busy when requested (Count)
system.cpu.fuBusyRate                        0.007465                       # FU busy rate (busy events/executed inst) ((Count/Count))
system.cpu.intInstQueueReads              11306375589                       # Number of integer instruction queue reads (Count)
system.cpu.intInstQueueWrites              3792359781                       # Number of integer instruction queue writes (Count)
system.cpu.intInstQueueWakeupAccesses      3767178596                       # Number of integer instruction queue wakeup accesses (Count)
system.cpu.fpInstQueueReads                 467717456                       # Number of floating instruction queue reads (Count)
system.cpu.fpInstQueueWrites                235175179                       # Number of floating instruction queue writes (Count)
system.cpu.fpInstQueueWakeupAccesses        233791003                       # Number of floating instruction queue wakeup accesses (Count)
system.cpu.vecInstQueueReads                        0                       # Number of vector instruction queue reads (Count)
system.cpu.vecInstQueueWrites                       0                       # Number of vector instruction queue writes (Count)
system.cpu.vecInstQueueWakeupAccesses               0                       # Number of vector instruction queue wakeup accesses (Count)
system.cpu.intAluAccesses                  3797958377                       # Number of integer alu accesses (Count)
system.cpu.fpAluAccesses                    233893244                       # Number of floating point alu accesses (Count)
system.cpu.vecAluAccesses                           0                       # Number of vector alu accesses (Count)
system.cpu.numSquashedInsts                    842244                       # Number of squashed instructions skipped in execute (Count)
system.cpu.numSwp                                   0                       # Number of swp insts executed (Count)
system.cpu.timesIdled                           12113                       # Number of times that the entire CPU went into an idle state and unscheduled itself (Count)
system.cpu.idleCycles                         7257380                       # Total number of cycles that the CPU has spent unscheduled due to idling (Cycle)
system.cpu.MemDepUnit__0.insertedLoads      889109304                       # Number of loads inserted to the mem dependence unit. (Count)
system.cpu.MemDepUnit__0.insertedStores     531155074                       # Number of stores inserted to the mem dependence unit. (Count)
system.cpu.MemDepUnit__0.conflictingLoads    428558313                       # Number of conflicting loads. (Count)
system.cpu.MemDepUnit__0.conflictingStores    144074423                       # Number of conflicting stores. (Count)
system.cpu.MemDepUnit__1.insertedLoads              0                       # Number of loads inserted to the mem dependence unit. (Count)
system.cpu.MemDepUnit__1.insertedStores             0                       # Number of stores inserted to the mem dependence unit. (Count)
system.cpu.MemDepUnit__1.conflictingLoads            0                       # Number of conflicting loads. (Count)
system.cpu.MemDepUnit__1.conflictingStores            0                       # Number of conflicting stores. (Count)
system.cpu.MemDepUnit__2.insertedLoads              0                       # Number of loads inserted to the mem dependence unit. (Count)
system.cpu.MemDepUnit__2.insertedStores             0                       # Number of stores inserted to the mem dependence unit. (Count)
system.cpu.MemDepUnit__2.conflictingLoads            0                       # Number of conflicting loads. (Count)
system.cpu.MemDepUnit__2.conflictingStores            0                       # Number of conflicting stores. (Count)
system.cpu.MemDepUnit__3.insertedLoads              0                       # Number of loads inserted to the mem dependence unit. (Count)
system.cpu.MemDepUnit__3.insertedStores             0                       # Number of stores inserted to the mem dependence unit. (Count)
system.cpu.MemDepUnit__3.conflictingLoads            0                       # Number of conflicting loads. (Count)
system.cpu.MemDepUnit__3.conflictingStores            0                       # Number of conflicting stores. (Count)
system.cpu.branchPred.lookups_0::NoBranch            1      0.00%      0.00% # Number of BP lookups (Count)
system.cpu.branchPred.lookups_0::Return     119676781     39.31%     39.31% # Number of BP lookups (Count)
system.cpu.branchPred.lookups_0::CallDirect    119501582     39.26%     78.57% # Number of BP lookups (Count)
system.cpu.branchPred.lookups_0::CallIndirect         3580      0.00%     78.57% # Number of BP lookups (Count)
system.cpu.branchPred.lookups_0::DirectCond     62180242     20.43%     99.00% # Number of BP lookups (Count)
system.cpu.branchPred.lookups_0::DirectUncond      1090652      0.36%     99.36% # Number of BP lookups (Count)
system.cpu.branchPred.lookups_0::IndirectCond            0      0.00%     99.36% # Number of BP lookups (Count)
system.cpu.branchPred.lookups_0::IndirectUncond      1963241      0.64%    100.00% # Number of BP lookups (Count)
system.cpu.branchPred.lookups_0::total      304416079                       # Number of BP lookups (Count)
system.cpu.branchPred.squashes_0::NoBranch            1      0.00%      0.00% # Number of branches that got squashed (completely removed) as an earlier branch was mispredicted. (Count)
system.cpu.branchPred.squashes_0::Return       908585     37.15%     37.15% # Number of branches that got squashed (completely removed) as an earlier branch was mispredicted. (Count)
system.cpu.branchPred.squashes_0::CallDirect       736212     30.10%     67.26% # Number of branches that got squashed (completely removed) as an earlier branch was mispredicted. (Count)
system.cpu.branchPred.squashes_0::CallIndirect          750      0.03%     67.29% # Number of branches that got squashed (completely removed) as an earlier branch was mispredicted. (Count)
system.cpu.branchPred.squashes_0::DirectCond       699561     28.61%     95.89% # Number of branches that got squashed (completely removed) as an earlier branch was mispredicted. (Count)
system.cpu.branchPred.squashes_0::DirectUncond        90400      3.70%     99.59% # Number of branches that got squashed (completely removed) as an earlier branch was mispredicted. (Count)
system.cpu.branchPred.squashes_0::IndirectCond            0      0.00%     99.59% # Number of branches that got squashed (completely removed) as an earlier branch was mispredicted. (Count)
system.cpu.branchPred.squashes_0::IndirectUncond        10065      0.41%    100.00% # Number of branches that got squashed (completely removed) as an earlier branch was mispredicted. (Count)
system.cpu.branchPred.squashes_0::total       2445574                       # Number of branches that got squashed (completely removed) as an earlier branch was mispredicted. (Count)
system.cpu.branchPred.corrected_0::NoBranch            0      0.00%      0.00% # Number of branches that got corrected but not yet commited. Branches get corrected by decode or after execute. Also a branch misprediction can be detected out-of-order. Therefore, a corrected branch might not end up beeing committed in case an even earlier branch was mispredicted (Count)
system.cpu.branchPred.corrected_0::Return         1239      0.38%      0.38% # Number of branches that got corrected but not yet commited. Branches get corrected by decode or after execute. Also a branch misprediction can be detected out-of-order. Therefore, a corrected branch might not end up beeing committed in case an even earlier branch was mispredicted (Count)
system.cpu.branchPred.corrected_0::CallDirect        18756      5.81%      6.20% # Number of branches that got corrected but not yet commited. Branches get corrected by decode or after execute. Also a branch misprediction can be detected out-of-order. Therefore, a corrected branch might not end up beeing committed in case an even earlier branch was mispredicted (Count)
system.cpu.branchPred.corrected_0::CallIndirect          185      0.06%      6.26% # Number of branches that got corrected but not yet commited. Branches get corrected by decode or after execute. Also a branch misprediction can be detected out-of-order. Therefore, a corrected branch might not end up beeing committed in case an even earlier branch was mispredicted (Count)
system.cpu.branchPred.corrected_0::DirectCond       266490     82.62%     88.88% # Number of branches that got corrected but not yet commited. Branches get corrected by decode or after execute. Also a branch misprediction can be detected out-of-order. Therefore, a corrected branch might not end up beeing committed in case an even earlier branch was mispredicted (Count)
system.cpu.branchPred.corrected_0::DirectUncond        35337     10.96%     99.83% # Number of branches that got corrected but not yet commited. Branches get corrected by decode or after execute. Also a branch misprediction can be detected out-of-order. Therefore, a corrected branch might not end up beeing committed in case an even earlier branch was mispredicted (Count)
system.cpu.branchPred.corrected_0::IndirectCond            0      0.00%     99.83% # Number of branches that got corrected but not yet commited. Branches get corrected by decode or after execute. Also a branch misprediction can be detected out-of-order. Therefore, a corrected branch might not end up beeing committed in case an even earlier branch was mispredicted (Count)
system.cpu.branchPred.corrected_0::IndirectUncond          540      0.17%    100.00% # Number of branches that got corrected but not yet commited. Branches get corrected by decode or after execute. Also a branch misprediction can be detected out-of-order. Therefore, a corrected branch might not end up beeing committed in case an even earlier branch was mispredicted (Count)
system.cpu.branchPred.corrected_0::total       322547                       # Number of branches that got corrected but not yet commited. Branches get corrected by decode or after execute. Also a branch misprediction can be detected out-of-order. Therefore, a corrected branch might not end up beeing committed in case an even earlier branch was mispredicted (Count)
system.cpu.branchPred.earlyResteers_0::NoBranch            0                       # Number of branches that got redirected after decode. (Count)
system.cpu.branchPred.earlyResteers_0::Return            0                       # Number of branches that got redirected after decode. (Count)
system.cpu.branchPred.earlyResteers_0::CallDirect            0                       # Number of branches that got redirected after decode. (Count)
system.cpu.branchPred.earlyResteers_0::CallIndirect            0                       # Number of branches that got redirected after decode. (Count)
system.cpu.branchPred.earlyResteers_0::DirectCond            0                       # Number of branches that got redirected after decode. (Count)
system.cpu.branchPred.earlyResteers_0::DirectUncond            0                       # Number of branches that got redirected after decode. (Count)
system.cpu.branchPred.earlyResteers_0::IndirectCond            0                       # Number of branches that got redirected after decode. (Count)
system.cpu.branchPred.earlyResteers_0::IndirectUncond            0                       # Number of branches that got redirected after decode. (Count)
system.cpu.branchPred.earlyResteers_0::total            0                       # Number of branches that got redirected after decode. (Count)
system.cpu.branchPred.committed_0::NoBranch            0      0.00%      0.00% # Number of branches finally committed  (Count)
system.cpu.branchPred.committed_0::Return    118768196     39.33%     39.33% # Number of branches finally committed  (Count)
system.cpu.branchPred.committed_0::CallDirect    118765370     39.33%     78.66% # Number of branches finally committed  (Count)
system.cpu.branchPred.committed_0::CallIndirect         2830      0.00%     78.66% # Number of branches finally committed  (Count)
system.cpu.branchPred.committed_0::DirectCond     61480680     20.36%     99.02% # Number of branches finally committed  (Count)
system.cpu.branchPred.committed_0::DirectUncond      1000252      0.33%     99.35% # Number of branches finally committed  (Count)
system.cpu.branchPred.committed_0::IndirectCond            0      0.00%     99.35% # Number of branches finally committed  (Count)
system.cpu.branchPred.committed_0::IndirectUncond      1953176      0.65%    100.00% # Number of branches finally committed  (Count)
system.cpu.branchPred.committed_0::total    301970504                       # Number of branches finally committed  (Count)
system.cpu.branchPred.mispredicted_0::NoBranch            0      0.00%      0.00% # Number of committed branches that were mispredicted. (Count)
system.cpu.branchPred.mispredicted_0::Return         1053      0.34%      0.34% # Number of committed branches that were mispredicted. (Count)
system.cpu.branchPred.mispredicted_0::CallDirect        16229      5.26%      5.60% # Number of committed branches that were mispredicted. (Count)
system.cpu.branchPred.mispredicted_0::CallIndirect          171      0.06%      5.66% # Number of committed branches that were mispredicted. (Count)
system.cpu.branchPred.mispredicted_0::DirectCond       261545     84.82%     90.48% # Number of committed branches that were mispredicted. (Count)
system.cpu.branchPred.mispredicted_0::DirectUncond        28869      9.36%     99.84% # Number of committed branches that were mispredicted. (Count)
system.cpu.branchPred.mispredicted_0::IndirectCond            0      0.00%     99.84% # Number of committed branches that were mispredicted. (Count)
system.cpu.branchPred.mispredicted_0::IndirectUncond          486      0.16%    100.00% # Number of committed branches that were mispredicted. (Count)
system.cpu.branchPred.mispredicted_0::total       308353                       # Number of committed branches that were mispredicted. (Count)
system.cpu.branchPred.targetProvider_0::NoTarget     13726080      4.51%      4.51% # The component providing the target for taken branches (Count)
system.cpu.branchPred.targetProvider_0::BTB    169049837     55.53%     60.04% # The component providing the target for taken branches (Count)
system.cpu.branchPred.targetProvider_0::RAS    119676776     39.31%     99.36% # The component providing the target for taken branches (Count)
system.cpu.branchPred.targetProvider_0::Indirect      1963386      0.64%    100.00% # The component providing the target for taken branches (Count)
system.cpu.branchPred.targetProvider_0::total    304416079                       # The component providing the target for taken branches (Count)
system.cpu.branchPred.targetWrong_0::NoBranch       192712     59.86%     59.86% # Number of branches where the target was incorrect or not available at prediction time. (Count)
system.cpu.branchPred.targetWrong_0::Return       127865     39.72%     99.58% # Number of branches where the target was incorrect or not available at prediction time. (Count)
system.cpu.branchPred.targetWrong_0::CallDirect         1239      0.38%     99.96% # Number of branches where the target was incorrect or not available at prediction time. (Count)
system.cpu.branchPred.targetWrong_0::CallIndirect          118      0.04%    100.00% # Number of branches where the target was incorrect or not available at prediction time. (Count)
system.cpu.branchPred.targetWrong_0::DirectCond            0      0.00%    100.00% # Number of branches where the target was incorrect or not available at prediction time. (Count)
system.cpu.branchPred.targetWrong_0::DirectUncond            0      0.00%    100.00% # Number of branches where the target was incorrect or not available at prediction time. (Count)
system.cpu.branchPred.targetWrong_0::IndirectCond            0      0.00%    100.00% # Number of branches where the target was incorrect or not available at prediction time. (Count)
system.cpu.branchPred.targetWrong_0::IndirectUncond            0      0.00%    100.00% # Number of branches where the target was incorrect or not available at prediction time. (Count)
system.cpu.branchPred.targetWrong_0::total       321934                       # Number of branches where the target was incorrect or not available at prediction time. (Count)
system.cpu.branchPred.condPredicted          62180243                       # Number of conditional branches predicted (Count)
system.cpu.branchPred.condPredictedTaken     48593410                       # Number of conditional branches predicted as taken (Count)
system.cpu.branchPred.condIncorrect            322547                       # Number of conditional branches incorrect (Count)
system.cpu.branchPred.predTakenBTBMiss          90693                       # Number of branches predicted taken but missed in BTB (Count)
system.cpu.branchPred.NotTakenMispredicted       194882                       # Number branches predicted 'not taken' but turned out to be taken (Count)
system.cpu.branchPred.TakenMispredicted        127665                       # Number branches predicted taken but are actually not taken (Count)
system.cpu.branchPred.BTBLookups            304416079                       # Number of BTB lookups (Count)
system.cpu.branchPred.BTBUpdates               192918                       # Number of BTB updates (Count)
system.cpu.branchPred.BTBHits               173996708                       # Number of BTB hits (Count)
system.cpu.branchPred.BTBHitRatio            0.571575                       # BTB Hit Ratio (Ratio)
system.cpu.branchPred.BTBMispredicted           92417                       # Number BTB mispredictions. No target found or target wrong (Count)
system.cpu.branchPred.indirectLookups         1966821                       # Number of indirect predictor lookups. (Count)
system.cpu.branchPred.indirectHits            1963386                       # Number of indirect target hits. (Count)
system.cpu.branchPred.indirectMisses             3435                       # Number of indirect misses. (Count)
system.cpu.branchPred.indirectMispredicted            0                       # Number of mispredicted indirect branches. (Count)
system.cpu.branchPred.btb.lookups::NoBranch            1      0.00%      0.00% # Number of BTB lookups (Count)
system.cpu.branchPred.btb.lookups::Return    119676781     39.31%     39.31% # Number of BTB lookups (Count)
system.cpu.branchPred.btb.lookups::CallDirect    119501582     39.26%     78.57% # Number of BTB lookups (Count)
system.cpu.branchPred.btb.lookups::CallIndirect         3580      0.00%     78.57% # Number of BTB lookups (Count)
system.cpu.branchPred.btb.lookups::DirectCond     62180242     20.43%     99.00% # Number of BTB lookups (Count)
system.cpu.branchPred.btb.lookups::DirectUncond      1090652      0.36%     99.36% # Number of BTB lookups (Count)
system.cpu.branchPred.btb.lookups::IndirectCond            0      0.00%     99.36% # Number of BTB lookups (Count)
system.cpu.branchPred.btb.lookups::IndirectUncond      1963241      0.64%    100.00% # Number of BTB lookups (Count)
system.cpu.branchPred.btb.lookups::total    304416079                       # Number of BTB lookups (Count)
system.cpu.branchPred.btb.misses::NoBranch            1      0.00%      0.00% # Number of BTB misses (Count)
system.cpu.branchPred.btb.misses::Return    119676081     91.76%     91.76% # Number of BTB misses (Count)
system.cpu.branchPred.btb.misses::CallDirect        53907      0.04%     91.80% # Number of BTB misses (Count)
system.cpu.branchPred.btb.misses::CallIndirect         3446      0.00%     91.81% # Number of BTB misses (Count)
system.cpu.branchPred.btb.misses::DirectCond      8686587      6.66%     98.47% # Number of BTB misses (Count)
system.cpu.branchPred.btb.misses::DirectUncond        36108      0.03%     98.49% # Number of BTB misses (Count)
system.cpu.branchPred.btb.misses::IndirectCond            0      0.00%     98.49% # Number of BTB misses (Count)
system.cpu.branchPred.btb.misses::IndirectUncond      1963241      1.51%    100.00% # Number of BTB misses (Count)
system.cpu.branchPred.btb.misses::total     130419371                       # Number of BTB misses (Count)
system.cpu.branchPred.btb.updates::NoBranch            0      0.00%      0.00% # Number of BTB updates (Count)
system.cpu.branchPred.btb.updates::Return            0      0.00%      0.00% # Number of BTB updates (Count)
system.cpu.branchPred.btb.updates::CallDirect        18756      9.72%      9.72% # Number of BTB updates (Count)
system.cpu.branchPred.btb.updates::CallIndirect            0      0.00%      9.72% # Number of BTB updates (Count)
system.cpu.branchPred.btb.updates::DirectCond       138825     71.96%     81.68% # Number of BTB updates (Count)
system.cpu.branchPred.btb.updates::DirectUncond        35337     18.32%    100.00% # Number of BTB updates (Count)
system.cpu.branchPred.btb.updates::IndirectCond            0      0.00%    100.00% # Number of BTB updates (Count)
system.cpu.branchPred.btb.updates::IndirectUncond            0      0.00%    100.00% # Number of BTB updates (Count)
system.cpu.branchPred.btb.updates::total       192918                       # Number of BTB updates (Count)
system.cpu.branchPred.btb.mispredict::NoBranch            0      0.00%      0.00% # Number of BTB mispredictions. No target found or target wrong. (Count)
system.cpu.branchPred.btb.mispredict::Return            0      0.00%      0.00% # Number of BTB mispredictions. No target found or target wrong. (Count)
system.cpu.branchPred.btb.mispredict::CallDirect        18756      9.72%      9.72% # Number of BTB mispredictions. No target found or target wrong. (Count)
system.cpu.branchPred.btb.mispredict::CallIndirect            0      0.00%      9.72% # Number of BTB mispredictions. No target found or target wrong. (Count)
system.cpu.branchPred.btb.mispredict::DirectCond       138825     71.96%     81.68% # Number of BTB mispredictions. No target found or target wrong. (Count)
system.cpu.branchPred.btb.mispredict::DirectUncond        35337     18.32%    100.00% # Number of BTB mispredictions. No target found or target wrong. (Count)
system.cpu.branchPred.btb.mispredict::IndirectCond            0      0.00%    100.00% # Number of BTB mispredictions. No target found or target wrong. (Count)
system.cpu.branchPred.btb.mispredict::IndirectUncond            0      0.00%    100.00% # Number of BTB mispredictions. No target found or target wrong. (Count)
system.cpu.branchPred.btb.mispredict::total       192918                       # Number of BTB mispredictions. No target found or target wrong. (Count)
system.cpu.branchPred.btb.power_state.pwrStateResidencyTicks::UNDEFINED 1172897878471                       # Cumulative time (in ticks) in various power states (Tick)
system.cpu.branchPred.indirectBranchPred.lookups      1966821                       # Number of lookups (Count)
system.cpu.branchPred.indirectBranchPred.hits      1963386                       # Number of hits of a tag (Count)
system.cpu.branchPred.indirectBranchPred.misses         3435                       # Number of misses (Count)
system.cpu.branchPred.indirectBranchPred.targetRecords          725                       # Number of targets that where recorded/installed in the cache (Count)
system.cpu.branchPred.indirectBranchPred.indirectRecords      1967546                       # Number of indirect branches/calls recorded in the indirect hist (Count)
system.cpu.branchPred.indirectBranchPred.speculativeOverflows            0                       # Number of times more than the allowed capacity for speculative branches/calls where in flight and destroy the path history (Count)
system.cpu.branchPred.ras.pushes            120413747                       # Number of times a PC was pushed onto the RAS (Count)
system.cpu.branchPred.ras.pops              120413743                       # Number of times a PC was poped from the RAS (Count)
system.cpu.branchPred.ras.squashes            1645547                       # Number of times the stack operation was squashed due to wrong speculation. (Count)
system.cpu.branchPred.ras.used              118768196                       # Number of times the RAS is the provider (Count)
system.cpu.branchPred.ras.correct           118767143                       # Number of times the RAS is the provider and the prediction is correct (Count)
system.cpu.branchPred.ras.incorrect              1053                       # Number of times the RAS is the provider and the prediction is wrong (Count)
system.cpu.commit.commitSquashedInsts        19112561                       # The number of squashed insts skipped by commit (Count)
system.cpu.commit.commitNonSpecStalls            6807                       # The number of times commit has been forced to stall to communicate backwards (Count)
system.cpu.commit.branchMispredicts            270550                       # The number of times a branch was mispredicted (Count)
system.cpu.commit.numCommittedDist::samples   3737386686                       # Number of insts commited each cycle (Count)
system.cpu.commit.numCommittedDist::mean     1.067352                       # Number of insts commited each cycle (Count)
system.cpu.commit.numCommittedDist::stdev     2.365482                       # Number of insts commited each cycle (Count)
system.cpu.commit.numCommittedDist::underflows            0      0.00%      0.00% # Number of insts commited each cycle (Count)
system.cpu.commit.numCommittedDist::0      2764892652     73.98%     73.98% # Number of insts commited each cycle (Count)
system.cpu.commit.numCommittedDist::1       339197687      9.08%     83.06% # Number of insts commited each cycle (Count)
system.cpu.commit.numCommittedDist::2        95898390      2.57%     85.62% # Number of insts commited each cycle (Count)
system.cpu.commit.numCommittedDist::3       108278190      2.90%     88.52% # Number of insts commited each cycle (Count)
system.cpu.commit.numCommittedDist::4        19289463      0.52%     89.03% # Number of insts commited each cycle (Count)
system.cpu.commit.numCommittedDist::5        34978991      0.94%     89.97% # Number of insts commited each cycle (Count)
system.cpu.commit.numCommittedDist::6        31610083      0.85%     90.82% # Number of insts commited each cycle (Count)
system.cpu.commit.numCommittedDist::7        54363315      1.45%     92.27% # Number of insts commited each cycle (Count)
system.cpu.commit.numCommittedDist::8       288877915      7.73%    100.00% # Number of insts commited each cycle (Count)
system.cpu.commit.numCommittedDist::overflows            0      0.00%    100.00% # Number of insts commited each cycle (Count)
system.cpu.commit.numCommittedDist::min_value            0                       # Number of insts commited each cycle (Count)
system.cpu.commit.numCommittedDist::max_value            8                       # Number of insts commited each cycle (Count)
system.cpu.commit.numCommittedDist::total   3737386686                       # Number of insts commited each cycle (Count)
system.cpu.commit.amos                              0                       # Number of atomic instructions committed (Count)
system.cpu.commit.membars                        4370                       # Number of memory barriers committed (Count)
system.cpu.commit.functionCalls             118768200                       # Number of function calls committed. (Count)
system.cpu.commit.committedInstType_0::No_OpClass       103987      0.00%      0.00% # Class of committed instruction (Count)
system.cpu.commit.committedInstType_0::IntAlu   2409860433     60.41%     60.41% # Class of committed instruction (Count)
system.cpu.commit.committedInstType_0::IntMult     19256002      0.48%     60.90% # Class of committed instruction (Count)
system.cpu.commit.committedInstType_0::IntDiv         3732      0.00%     60.90% # Class of committed instruction (Count)
system.cpu.commit.committedInstType_0::FloatAdd     57236588      1.43%     62.33% # Class of committed instruction (Count)
system.cpu.commit.committedInstType_0::FloatCmp            0      0.00%     62.33% # Class of committed instruction (Count)
system.cpu.commit.committedInstType_0::FloatCvt          448      0.00%     62.33% # Class of committed instruction (Count)
system.cpu.commit.committedInstType_0::FloatMult            0      0.00%     62.33% # Class of committed instruction (Count)
system.cpu.commit.committedInstType_0::FloatMultAcc            0      0.00%     62.33% # Class of committed instruction (Count)
system.cpu.commit.committedInstType_0::FloatDiv            0      0.00%     62.33% # Class of committed instruction (Count)
system.cpu.commit.committedInstType_0::FloatMisc            0      0.00%     62.33% # Class of committed instruction (Count)
system.cpu.commit.committedInstType_0::FloatSqrt            0      0.00%     62.33% # Class of committed instruction (Count)
system.cpu.commit.committedInstType_0::SimdAdd          788      0.00%     62.33% # Class of committed instruction (Count)
system.cpu.commit.committedInstType_0::SimdAddAcc            0      0.00%     62.33% # Class of committed instruction (Count)
system.cpu.commit.committedInstType_0::SimdAlu     20991238      0.53%     62.86% # Class of committed instruction (Count)
system.cpu.commit.committedInstType_0::SimdCmp            0      0.00%     62.86% # Class of committed instruction (Count)
system.cpu.commit.committedInstType_0::SimdCvt         7178      0.00%     62.86% # Class of committed instruction (Count)
system.cpu.commit.committedInstType_0::SimdMisc     19162952      0.48%     63.34% # Class of committed instruction (Count)
system.cpu.commit.committedInstType_0::SimdMult            0      0.00%     63.34% # Class of committed instruction (Count)
system.cpu.commit.committedInstType_0::SimdMultAcc            0      0.00%     63.34% # Class of committed instruction (Count)
system.cpu.commit.committedInstType_0::SimdMatMultAcc            0      0.00%     63.34% # Class of committed instruction (Count)
system.cpu.commit.committedInstType_0::SimdShift            0      0.00%     63.34% # Class of committed instruction (Count)
system.cpu.commit.committedInstType_0::SimdShiftAcc            0      0.00%     63.34% # Class of committed instruction (Count)
system.cpu.commit.committedInstType_0::SimdDiv            0      0.00%     63.34% # Class of committed instruction (Count)
system.cpu.commit.committedInstType_0::SimdSqrt            0      0.00%     63.34% # Class of committed instruction (Count)
system.cpu.commit.committedInstType_0::SimdFloatAdd     10461616      0.26%     63.60% # Class of committed instruction (Count)
system.cpu.commit.committedInstType_0::SimdFloatAlu            0      0.00%     63.60% # Class of committed instruction (Count)
system.cpu.commit.committedInstType_0::SimdFloatCmp            0      0.00%     63.60% # Class of committed instruction (Count)
system.cpu.commit.committedInstType_0::SimdFloatCvt     27570608      0.69%     64.29% # Class of committed instruction (Count)
system.cpu.commit.committedInstType_0::SimdFloatDiv      1895472      0.05%     64.34% # Class of committed instruction (Count)
system.cpu.commit.committedInstType_0::SimdFloatMisc            0      0.00%     64.34% # Class of committed instruction (Count)
system.cpu.commit.committedInstType_0::SimdFloatMult      8575840      0.21%     64.55% # Class of committed instruction (Count)
system.cpu.commit.committedInstType_0::SimdFloatMultAcc            0      0.00%     64.55% # Class of committed instruction (Count)
system.cpu.commit.committedInstType_0::SimdFloatMatMultAcc            0      0.00%     64.55% # Class of committed instruction (Count)
system.cpu.commit.committedInstType_0::SimdFloatSqrt           48      0.00%     64.55% # Class of committed instruction (Count)
system.cpu.commit.committedInstType_0::SimdReduceAdd            0      0.00%     64.55% # Class of committed instruction (Count)
system.cpu.commit.committedInstType_0::SimdReduceAlu            0      0.00%     64.55% # Class of committed instruction (Count)
system.cpu.commit.committedInstType_0::SimdReduceCmp            0      0.00%     64.55% # Class of committed instruction (Count)
system.cpu.commit.committedInstType_0::SimdFloatReduceAdd            0      0.00%     64.55% # Class of committed instruction (Count)
system.cpu.commit.committedInstType_0::SimdFloatReduceCmp            0      0.00%     64.55% # Class of committed instruction (Count)
system.cpu.commit.committedInstType_0::SimdAes            0      0.00%     64.55% # Class of committed instruction (Count)
system.cpu.commit.committedInstType_0::SimdAesMix            0      0.00%     64.55% # Class of committed instruction (Count)
system.cpu.commit.committedInstType_0::SimdSha1Hash            0      0.00%     64.55% # Class of committed instruction (Count)
system.cpu.commit.committedInstType_0::SimdSha1Hash2            0      0.00%     64.55% # Class of committed instruction (Count)
system.cpu.commit.committedInstType_0::SimdSha256Hash            0      0.00%     64.55% # Class of committed instruction (Count)
system.cpu.commit.committedInstType_0::SimdSha256Hash2            0      0.00%     64.55% # Class of committed instruction (Count)
system.cpu.commit.committedInstType_0::SimdShaSigma2            0      0.00%     64.55% # Class of committed instruction (Count)
system.cpu.commit.committedInstType_0::SimdShaSigma3            0      0.00%     64.55% # Class of committed instruction (Count)
system.cpu.commit.committedInstType_0::SimdPredAlu            0      0.00%     64.55% # Class of committed instruction (Count)
system.cpu.commit.committedInstType_0::Matrix            0      0.00%     64.55% # Class of committed instruction (Count)
system.cpu.commit.committedInstType_0::MatrixMov            0      0.00%     64.55% # Class of committed instruction (Count)
system.cpu.commit.committedInstType_0::MatrixOP            0      0.00%     64.55% # Class of committed instruction (Count)
system.cpu.commit.committedInstType_0::MemRead    819133298     20.53%     85.09% # Class of committed instruction (Count)
system.cpu.commit.committedInstType_0::MemWrite    507725437     12.73%     97.82% # Class of committed instruction (Count)
system.cpu.commit.committedInstType_0::FloatMemRead     65957012      1.65%     99.47% # Class of committed instruction (Count)
system.cpu.commit.committedInstType_0::FloatMemWrite     21166190      0.53%    100.00% # Class of committed instruction (Count)
system.cpu.commit.committedInstType_0::IprAccess            0      0.00%    100.00% # Class of committed instruction (Count)
system.cpu.commit.committedInstType_0::InstPrefetch            0      0.00%    100.00% # Class of committed instruction (Count)
system.cpu.commit.committedInstType_0::SimdUnitStrideLoad            0      0.00%    100.00% # Class of committed instruction (Count)
system.cpu.commit.committedInstType_0::SimdUnitStrideStore            0      0.00%    100.00% # Class of committed instruction (Count)
system.cpu.commit.committedInstType_0::SimdUnitStrideMaskLoad            0      0.00%    100.00% # Class of committed instruction (Count)
system.cpu.commit.committedInstType_0::SimdUnitStrideMaskStore            0      0.00%    100.00% # Class of committed instruction (Count)
system.cpu.commit.committedInstType_0::SimdStridedLoad            0      0.00%    100.00% # Class of committed instruction (Count)
system.cpu.commit.committedInstType_0::SimdStridedStore            0      0.00%    100.00% # Class of committed instruction (Count)
system.cpu.commit.committedInstType_0::SimdIndexedLoad            0      0.00%    100.00% # Class of committed instruction (Count)
system.cpu.commit.committedInstType_0::SimdIndexedStore            0      0.00%    100.00% # Class of committed instruction (Count)
system.cpu.commit.committedInstType_0::SimdWholeRegisterLoad            0      0.00%    100.00% # Class of committed instruction (Count)
system.cpu.commit.committedInstType_0::SimdWholeRegisterStore            0      0.00%    100.00% # Class of committed instruction (Count)
system.cpu.commit.committedInstType_0::SimdUnitStrideFaultOnlyFirstLoad            0      0.00%    100.00% # Class of committed instruction (Count)
system.cpu.commit.committedInstType_0::SimdUnitStrideSegmentedLoad            0      0.00%    100.00% # Class of committed instruction (Count)
system.cpu.commit.committedInstType_0::SimdUnitStrideSegmentedStore            0      0.00%    100.00% # Class of committed instruction (Count)
system.cpu.commit.committedInstType_0::SimdExt            0      0.00%    100.00% # Class of committed instruction (Count)
system.cpu.commit.committedInstType_0::SimdFloatExt            0      0.00%    100.00% # Class of committed instruction (Count)
system.cpu.commit.committedInstType_0::SimdConfig            0      0.00%    100.00% # Class of committed instruction (Count)
system.cpu.commit.committedInstType_0::total   3989108867                       # Class of committed instruction (Count)
system.cpu.commit.commitEligibleSamples     288877915                       # number cycles where commit BW limit reached (Cycle)
system.cpu.commitStats0.numInsts           2383520870                       # Number of instructions committed (thread level) (Count)
system.cpu.commitStats0.numOps             3989108867                       # Number of ops (including micro ops) committed (thread level) (Count)
system.cpu.commitStats0.numInstsNotNOP     2383520870                       # Number of instructions committed excluding NOPs or prefetches (Count)
system.cpu.commitStats0.numOpsNotNOP       3989108867                       # Number of Ops (including micro ops) Simulated (Count)
system.cpu.commitStats0.cpi                  1.572161                       # CPI: cycles per instruction (thread level) ((Cycle/Count))
system.cpu.commitStats0.ipc                  0.636067                       # IPC: instructions per cycle (thread level) ((Count/Cycle))
system.cpu.commitStats0.numMemRefs         1413981937                       # Number of memory references committed (Count)
system.cpu.commitStats0.numFpInsts          233031127                       # Number of float instructions (Count)
system.cpu.commitStats0.numIntInsts        3861250215                       # Number of integer instructions (Count)
system.cpu.commitStats0.numLoadInsts        885090310                       # Number of load instructions (Count)
system.cpu.commitStats0.numStoreInsts       528891627                       # Number of store instructions (Count)
system.cpu.commitStats0.numVecInsts                 0                       # Number of vector instructions (Count)
system.cpu.commitStats0.committedInstType::No_OpClass       103987      0.00%      0.00% # Class of committed instruction. (Count)
system.cpu.commitStats0.committedInstType::IntAlu   2409860433     60.41%     60.41% # Class of committed instruction. (Count)
system.cpu.commitStats0.committedInstType::IntMult     19256002      0.48%     60.90% # Class of committed instruction. (Count)
system.cpu.commitStats0.committedInstType::IntDiv         3732      0.00%     60.90% # Class of committed instruction. (Count)
system.cpu.commitStats0.committedInstType::FloatAdd     57236588      1.43%     62.33% # Class of committed instruction. (Count)
system.cpu.commitStats0.committedInstType::FloatCmp            0      0.00%     62.33% # Class of committed instruction. (Count)
system.cpu.commitStats0.committedInstType::FloatCvt          448      0.00%     62.33% # Class of committed instruction. (Count)
system.cpu.commitStats0.committedInstType::FloatMult            0      0.00%     62.33% # Class of committed instruction. (Count)
system.cpu.commitStats0.committedInstType::FloatMultAcc            0      0.00%     62.33% # Class of committed instruction. (Count)
system.cpu.commitStats0.committedInstType::FloatDiv            0      0.00%     62.33% # Class of committed instruction. (Count)
system.cpu.commitStats0.committedInstType::FloatMisc            0      0.00%     62.33% # Class of committed instruction. (Count)
system.cpu.commitStats0.committedInstType::FloatSqrt            0      0.00%     62.33% # Class of committed instruction. (Count)
system.cpu.commitStats0.committedInstType::SimdAdd          788      0.00%     62.33% # Class of committed instruction. (Count)
system.cpu.commitStats0.committedInstType::SimdAddAcc            0      0.00%     62.33% # Class of committed instruction. (Count)
system.cpu.commitStats0.committedInstType::SimdAlu     20991238      0.53%     62.86% # Class of committed instruction. (Count)
system.cpu.commitStats0.committedInstType::SimdCmp            0      0.00%     62.86% # Class of committed instruction. (Count)
system.cpu.commitStats0.committedInstType::SimdCvt         7178      0.00%     62.86% # Class of committed instruction. (Count)
system.cpu.commitStats0.committedInstType::SimdMisc     19162952      0.48%     63.34% # Class of committed instruction. (Count)
system.cpu.commitStats0.committedInstType::SimdMult            0      0.00%     63.34% # Class of committed instruction. (Count)
system.cpu.commitStats0.committedInstType::SimdMultAcc            0      0.00%     63.34% # Class of committed instruction. (Count)
system.cpu.commitStats0.committedInstType::SimdMatMultAcc            0      0.00%     63.34% # Class of committed instruction. (Count)
system.cpu.commitStats0.committedInstType::SimdShift            0      0.00%     63.34% # Class of committed instruction. (Count)
system.cpu.commitStats0.committedInstType::SimdShiftAcc            0      0.00%     63.34% # Class of committed instruction. (Count)
system.cpu.commitStats0.committedInstType::SimdDiv            0      0.00%     63.34% # Class of committed instruction. (Count)
system.cpu.commitStats0.committedInstType::SimdSqrt            0      0.00%     63.34% # Class of committed instruction. (Count)
system.cpu.commitStats0.committedInstType::SimdFloatAdd     10461616      0.26%     63.60% # Class of committed instruction. (Count)
system.cpu.commitStats0.committedInstType::SimdFloatAlu            0      0.00%     63.60% # Class of committed instruction. (Count)
system.cpu.commitStats0.committedInstType::SimdFloatCmp            0      0.00%     63.60% # Class of committed instruction. (Count)
system.cpu.commitStats0.committedInstType::SimdFloatCvt     27570608      0.69%     64.29% # Class of committed instruction. (Count)
system.cpu.commitStats0.committedInstType::SimdFloatDiv      1895472      0.05%     64.34% # Class of committed instruction. (Count)
system.cpu.commitStats0.committedInstType::SimdFloatMisc            0      0.00%     64.34% # Class of committed instruction. (Count)
system.cpu.commitStats0.committedInstType::SimdFloatMult      8575840      0.21%     64.55% # Class of committed instruction. (Count)
system.cpu.commitStats0.committedInstType::SimdFloatMultAcc            0      0.00%     64.55% # Class of committed instruction. (Count)
system.cpu.commitStats0.committedInstType::SimdFloatMatMultAcc            0      0.00%     64.55% # Class of committed instruction. (Count)
system.cpu.commitStats0.committedInstType::SimdFloatSqrt           48      0.00%     64.55% # Class of committed instruction. (Count)
system.cpu.commitStats0.committedInstType::SimdReduceAdd            0      0.00%     64.55% # Class of committed instruction. (Count)
system.cpu.commitStats0.committedInstType::SimdReduceAlu            0      0.00%     64.55% # Class of committed instruction. (Count)
system.cpu.commitStats0.committedInstType::SimdReduceCmp            0      0.00%     64.55% # Class of committed instruction. (Count)
system.cpu.commitStats0.committedInstType::SimdFloatReduceAdd            0      0.00%     64.55% # Class of committed instruction. (Count)
system.cpu.commitStats0.committedInstType::SimdFloatReduceCmp            0      0.00%     64.55% # Class of committed instruction. (Count)
system.cpu.commitStats0.committedInstType::SimdAes            0      0.00%     64.55% # Class of committed instruction. (Count)
system.cpu.commitStats0.committedInstType::SimdAesMix            0      0.00%     64.55% # Class of committed instruction. (Count)
system.cpu.commitStats0.committedInstType::SimdSha1Hash            0      0.00%     64.55% # Class of committed instruction. (Count)
system.cpu.commitStats0.committedInstType::SimdSha1Hash2            0      0.00%     64.55% # Class of committed instruction. (Count)
system.cpu.commitStats0.committedInstType::SimdSha256Hash            0      0.00%     64.55% # Class of committed instruction. (Count)
system.cpu.commitStats0.committedInstType::SimdSha256Hash2            0      0.00%     64.55% # Class of committed instruction. (Count)
system.cpu.commitStats0.committedInstType::SimdShaSigma2            0      0.00%     64.55% # Class of committed instruction. (Count)
system.cpu.commitStats0.committedInstType::SimdShaSigma3            0      0.00%     64.55% # Class of committed instruction. (Count)
system.cpu.commitStats0.committedInstType::SimdPredAlu            0      0.00%     64.55% # Class of committed instruction. (Count)
system.cpu.commitStats0.committedInstType::Matrix            0      0.00%     64.55% # Class of committed instruction. (Count)
system.cpu.commitStats0.committedInstType::MatrixMov            0      0.00%     64.55% # Class of committed instruction. (Count)
system.cpu.commitStats0.committedInstType::MatrixOP            0      0.00%     64.55% # Class of committed instruction. (Count)
system.cpu.commitStats0.committedInstType::MemRead    819133298     20.53%     85.09% # Class of committed instruction. (Count)
system.cpu.commitStats0.committedInstType::MemWrite    507725437     12.73%     97.82% # Class of committed instruction. (Count)
system.cpu.commitStats0.committedInstType::FloatMemRead     65957012      1.65%     99.47% # Class of committed instruction. (Count)
system.cpu.commitStats0.committedInstType::FloatMemWrite     21166190      0.53%    100.00% # Class of committed instruction. (Count)
system.cpu.commitStats0.committedInstType::IprAccess            0      0.00%    100.00% # Class of committed instruction. (Count)
system.cpu.commitStats0.committedInstType::InstPrefetch            0      0.00%    100.00% # Class of committed instruction. (Count)
system.cpu.commitStats0.committedInstType::SimdUnitStrideLoad            0      0.00%    100.00% # Class of committed instruction. (Count)
system.cpu.commitStats0.committedInstType::SimdUnitStrideStore            0      0.00%    100.00% # Class of committed instruction. (Count)
system.cpu.commitStats0.committedInstType::SimdUnitStrideMaskLoad            0      0.00%    100.00% # Class of committed instruction. (Count)
system.cpu.commitStats0.committedInstType::SimdUnitStrideMaskStore            0      0.00%    100.00% # Class of committed instruction. (Count)
system.cpu.commitStats0.committedInstType::SimdStridedLoad            0      0.00%    100.00% # Class of committed instruction. (Count)
system.cpu.commitStats0.committedInstType::SimdStridedStore            0      0.00%    100.00% # Class of committed instruction. (Count)
system.cpu.commitStats0.committedInstType::SimdIndexedLoad            0      0.00%    100.00% # Class of committed instruction. (Count)
system.cpu.commitStats0.committedInstType::SimdIndexedStore            0      0.00%    100.00% # Class of committed instruction. (Count)
system.cpu.commitStats0.committedInstType::SimdWholeRegisterLoad            0      0.00%    100.00% # Class of committed instruction. (Count)
system.cpu.commitStats0.committedInstType::SimdWholeRegisterStore            0      0.00%    100.00% # Class of committed instruction. (Count)
system.cpu.commitStats0.committedInstType::SimdUnitStrideFaultOnlyFirstLoad            0      0.00%    100.00% # Class of committed instruction. (Count)
system.cpu.commitStats0.committedInstType::SimdUnitStrideSegmentedLoad            0      0.00%    100.00% # Class of committed instruction. (Count)
system.cpu.commitStats0.committedInstType::SimdUnitStrideSegmentedStore            0      0.00%    100.00% # Class of committed instruction. (Count)
system.cpu.commitStats0.committedInstType::SimdExt            0      0.00%    100.00% # Class of committed instruction. (Count)
system.cpu.commitStats0.committedInstType::SimdFloatExt            0      0.00%    100.00% # Class of committed instruction. (Count)
system.cpu.commitStats0.committedInstType::SimdConfig            0      0.00%    100.00% # Class of committed instruction. (Count)
system.cpu.commitStats0.committedInstType::total   3989108867                       # Class of committed instruction. (Count)
system.cpu.commitStats0.committedControl::IsControl    301970504                       # Class of control type instructions committed (Count)
system.cpu.commitStats0.committedControl::IsDirectControl    181246302                       # Class of control type instructions committed (Count)
system.cpu.commitStats0.committedControl::IsIndirectControl    120724202                       # Class of control type instructions committed (Count)
system.cpu.commitStats0.committedControl::IsCondControl     61480680                       # Class of control type instructions committed (Count)
system.cpu.commitStats0.committedControl::IsUncondControl    240489824                       # Class of control type instructions committed (Count)
system.cpu.commitStats0.committedControl::IsCall    118768200                       # Class of control type instructions committed (Count)
system.cpu.commitStats0.committedControl::IsReturn    118768196                       # Class of control type instructions committed (Count)
system.cpu.dcache.demandHits::cpu.data      829866007                       # number of demand (read+write) hits (Count)
system.cpu.dcache.demandHits::total         829866007                       # number of demand (read+write) hits (Count)
system.cpu.dcache.overallHits::cpu.data     829866007                       # number of overall hits (Count)
system.cpu.dcache.overallHits::total        829866007                       # number of overall hits (Count)
system.cpu.dcache.demandMisses::cpu.data     17439543                       # number of demand (read+write) misses (Count)
system.cpu.dcache.demandMisses::total        17439543                       # number of demand (read+write) misses (Count)
system.cpu.dcache.overallMisses::cpu.data     17439543                       # number of overall misses (Count)
system.cpu.dcache.overallMisses::total       17439543                       # number of overall misses (Count)
system.cpu.dcache.demandMissLatency::cpu.data 797616111802                       # number of demand (read+write) miss ticks (Tick)
system.cpu.dcache.demandMissLatency::total 797616111802                       # number of demand (read+write) miss ticks (Tick)
system.cpu.dcache.overallMissLatency::cpu.data 797616111802                       # number of overall miss ticks (Tick)
system.cpu.dcache.overallMissLatency::total 797616111802                       # number of overall miss ticks (Tick)
system.cpu.dcache.demandAccesses::cpu.data    847305550                       # number of demand (read+write) accesses (Count)
system.cpu.dcache.demandAccesses::total     847305550                       # number of demand (read+write) accesses (Count)
system.cpu.dcache.overallAccesses::cpu.data    847305550                       # number of overall (read+write) accesses (Count)
system.cpu.dcache.overallAccesses::total    847305550                       # number of overall (read+write) accesses (Count)
system.cpu.dcache.demandMissRate::cpu.data     0.020582                       # miss rate for demand accesses (Ratio)
system.cpu.dcache.demandMissRate::total      0.020582                       # miss rate for demand accesses (Ratio)
system.cpu.dcache.overallMissRate::cpu.data     0.020582                       # miss rate for overall accesses (Ratio)
system.cpu.dcache.overallMissRate::total     0.020582                       # miss rate for overall accesses (Ratio)
system.cpu.dcache.demandAvgMissLatency::cpu.data 45736.067270                       # average overall miss latency in ticks ((Tick/Count))
system.cpu.dcache.demandAvgMissLatency::total 45736.067270                       # average overall miss latency in ticks ((Tick/Count))
system.cpu.dcache.overallAvgMissLatency::cpu.data 45736.067270                       # average overall miss latency ((Tick/Count))
system.cpu.dcache.overallAvgMissLatency::total 45736.067270                       # average overall miss latency ((Tick/Count))
system.cpu.dcache.blockedCycles::no_mshrs      1582653                       # number of cycles access was blocked (Cycle)
system.cpu.dcache.blockedCycles::no_targets        37608                       # number of cycles access was blocked (Cycle)
system.cpu.dcache.blockedCauses::no_mshrs         2554                       # number of times access was blocked (Count)
system.cpu.dcache.blockedCauses::no_targets           41                       # number of times access was blocked (Count)
system.cpu.dcache.avgBlocked::no_mshrs     619.676194                       # average number of cycles each access was blocked ((Cycle/Count))
system.cpu.dcache.avgBlocked::no_targets   917.268293                       # average number of cycles each access was blocked ((Cycle/Count))
system.cpu.dcache.writebacks::writebacks     14695319                       # number of writebacks (Count)
system.cpu.dcache.writebacks::total          14695319                       # number of writebacks (Count)
system.cpu.dcache.demandMshrHits::cpu.data       118911                       # number of demand (read+write) MSHR hits (Count)
system.cpu.dcache.demandMshrHits::total        118911                       # number of demand (read+write) MSHR hits (Count)
system.cpu.dcache.overallMshrHits::cpu.data       118911                       # number of overall MSHR hits (Count)
[...]
system.l2.ReadSharedReq.accesses::total      16503967                       # number of ReadSharedReq accesses(hits+misses) (Count)
system.l2.ReadSharedReq.missRate::cpu.data     0.066843                       # miss rate for ReadSharedReq accesses (Ratio)
system.l2.ReadSharedReq.missRate::total      0.066843                       # miss rate for ReadSharedReq accesses (Ratio)
system.l2.ReadSharedReq.avgMissLatency::cpu.data 301856.903222                       # average ReadSharedReq miss latency ((Tick/Count))
system.l2.ReadSharedReq.avgMissLatency::total 301856.903222                       # average ReadSharedReq miss latency ((Tick/Count))
system.l2.ReadSharedReq.mshrMisses::cpu.data      1103175                       # number of ReadSharedReq MSHR misses (Count)
system.l2.ReadSharedReq.mshrMisses::total      1103175                       # number of ReadSharedReq MSHR misses (Count)
system.l2.ReadSharedReq.mshrMissLatency::cpu.data 325923653325                       # number of ReadSharedReq MSHR miss ticks (Tick)
system.l2.ReadSharedReq.mshrMissLatency::total 325923653325                       # number of ReadSharedReq MSHR miss ticks (Tick)
system.l2.ReadSharedReq.mshrMissRate::cpu.data     0.066843                       # mshr miss rate for ReadSharedReq accesses (Ratio)
system.l2.ReadSharedReq.mshrMissRate::total     0.066843                       # mshr miss rate for ReadSharedReq accesses (Ratio)
system.l2.ReadSharedReq.avgMshrMissLatency::cpu.data 295441.478755                       # average ReadSharedReq mshr miss latency ((Tick/Count))
system.l2.ReadSharedReq.avgMshrMissLatency::total 295441.478755                       # average ReadSharedReq mshr miss latency ((Tick/Count))
system.l2.UpgradeReq.hits::cpu.data                38                       # number of UpgradeReq hits (Count)
system.l2.UpgradeReq.hits::total                   38                       # number of UpgradeReq hits (Count)
system.l2.UpgradeReq.accesses::cpu.data            38                       # number of UpgradeReq accesses(hits+misses) (Count)
system.l2.UpgradeReq.accesses::total               38                       # number of UpgradeReq accesses(hits+misses) (Count)
system.l2.WritebackClean.hits::writebacks        30585                       # number of WritebackClean hits (Count)
system.l2.WritebackClean.hits::total            30585                       # number of WritebackClean hits (Count)
system.l2.WritebackClean.accesses::writebacks        30585                       # number of WritebackClean accesses(hits+misses) (Count)
system.l2.WritebackClean.accesses::total        30585                       # number of WritebackClean accesses(hits+misses) (Count)
system.l2.WritebackDirty.hits::writebacks     14695319                       # number of WritebackDirty hits (Count)
system.l2.WritebackDirty.hits::total         14695319                       # number of WritebackDirty hits (Count)
system.l2.WritebackDirty.accesses::writebacks     14695319                       # number of WritebackDirty accesses(hits+misses) (Count)
system.l2.WritebackDirty.accesses::total     14695319                       # number of WritebackDirty accesses(hits+misses) (Count)
system.l2.power_state.pwrStateResidencyTicks::UNDEFINED 1172897878471                       # Cumulative time (in ticks) in various power states (Tick)
system.l2.tags.tagsInUse                 32599.214989                       # Average ticks per tags in use ((Tick/Count))
system.l2.tags.totalRefs                     34701853                       # Total number of references to valid blocks. (Count)
system.l2.tags.sampledRefs                    1618873                       # Sample count of references to valid blocks. (Count)
system.l2.tags.avgRefs                      21.435809                       # Average number of references to valid blocks. ((Count/Count))
system.l2.tags.warmupTick                      430000                       # The tick when the warmup percentage was hit. (Tick)
system.l2.tags.occupancies::writebacks      40.524331                       # Average occupied blocks per tick, per requestor ((Count/Tick))
system.l2.tags.occupancies::cpu.inst        46.880707                       # Average occupied blocks per tick, per requestor ((Count/Tick))
system.l2.tags.occupancies::cpu.data     32511.809951                       # Average occupied blocks per tick, per requestor ((Count/Tick))
system.l2.tags.avgOccs::writebacks           0.001237                       # Average percentage of cache occupancy ((Ratio/Tick))
system.l2.tags.avgOccs::cpu.inst             0.001431                       # Average percentage of cache occupancy ((Ratio/Tick))
system.l2.tags.avgOccs::cpu.data             0.992182                       # Average percentage of cache occupancy ((Ratio/Tick))
system.l2.tags.avgOccs::total                0.994849                       # Average percentage of cache occupancy ((Ratio/Tick))
system.l2.tags.occupanciesTaskId::1024          32768                       # Occupied blocks per task id (Count)
system.l2.tags.ageTaskId_1024::0                   38                       # Occupied blocks per task id, per block age (Count)
system.l2.tags.ageTaskId_1024::1                  261                       # Occupied blocks per task id, per block age (Count)
system.l2.tags.ageTaskId_1024::2                  935                       # Occupied blocks per task id, per block age (Count)
system.l2.tags.ageTaskId_1024::3                 7605                       # Occupied blocks per task id, per block age (Count)
system.l2.tags.ageTaskId_1024::4                23929                       # Occupied blocks per task id, per block age (Count)
system.l2.tags.ratioOccsTaskId::1024                1                       # Ratio of occupied blocks and all blocks, per task id (Ratio)
system.l2.tags.tagAccesses                  279233873                       # Number of tag accesses (Count)
system.l2.tags.dataAccesses                 279233873                       # Number of data accesses (Count)
system.l2.tags.power_state.pwrStateResidencyTicks::UNDEFINED 1172897878471                       # Cumulative time (in ticks) in various power states (Tick)
system.mem_ctrls.bytesRead::cpu.inst           208896                       # Number of bytes read from this memory (Byte)
system.mem_ctrls.bytesRead::cpu.data        103300608                       # Number of bytes read from this memory (Byte)
system.mem_ctrls.bytesRead::total           103509504                       # Number of bytes read from this memory (Byte)
system.mem_ctrls.bytesInstRead::cpu.inst       208896                       # Number of instructions bytes read from this memory (Byte)
system.mem_ctrls.bytesInstRead::total          208896                       # Number of instructions bytes read from this memory (Byte)
system.mem_ctrls.bytesWritten::writebacks     32910272                       # Number of bytes written to this memory (Byte)
system.mem_ctrls.bytesWritten::total         32910272                       # Number of bytes written to this memory (Byte)
system.mem_ctrls.numReads::cpu.inst              3264                       # Number of read requests responded to by this memory (Count)
system.mem_ctrls.numReads::cpu.data           1614072                       # Number of read requests responded to by this memory (Count)
system.mem_ctrls.numReads::total              1617336                       # Number of read requests responded to by this memory (Count)
system.mem_ctrls.numWrites::writebacks         514223                       # Number of write requests responded to by this memory (Count)
system.mem_ctrls.numWrites::total              514223                       # Number of write requests responded to by this memory (Count)
system.mem_ctrls.bwRead::cpu.inst              178102                       # Total read bandwidth from this memory ((Byte/Second))
system.mem_ctrls.bwRead::cpu.data            88072977                       # Total read bandwidth from this memory ((Byte/Second))
system.mem_ctrls.bwRead::total               88251080                       # Total read bandwidth from this memory ((Byte/Second))
system.mem_ctrls.bwInstRead::cpu.inst          178102                       # Instruction read bandwidth from this memory ((Byte/Second))
system.mem_ctrls.bwInstRead::total             178102                       # Instruction read bandwidth from this memory ((Byte/Second))
system.mem_ctrls.bwWrite::writebacks         28058941                       # Write bandwidth from this memory ((Byte/Second))
system.mem_ctrls.bwWrite::total              28058941                       # Write bandwidth from this memory ((Byte/Second))
system.mem_ctrls.bwTotal::writebacks         28058941                       # Total bandwidth to/from this memory ((Byte/Second))
system.mem_ctrls.bwTotal::cpu.inst             178102                       # Total bandwidth to/from this memory ((Byte/Second))
system.mem_ctrls.bwTotal::cpu.data           88072977                       # Total bandwidth to/from this memory ((Byte/Second))
system.mem_ctrls.bwTotal::total             116310020                       # Total bandwidth to/from this memory ((Byte/Second))
system.mem_ctrls.power_state.pwrStateResidencyTicks::UNDEFINED 1172897878471                       # Cumulative time (in ticks) in various power states (Tick)
system.membus.transDist::ReadResp             1106439                       # Transaction distribution (Count)
system.membus.transDist::WritebackDirty        514223                       # Transaction distribution (Count)
system.membus.transDist::CleanEvict           1070228                       # Transaction distribution (Count)
system.membus.transDist::ReadExReq             510897                       # Transaction distribution (Count)
system.membus.transDist::ReadExResp            510897                       # Transaction distribution (Count)
system.membus.transDist::ReadSharedReq        1106439                       # Transaction distribution (Count)
system.membus.pktCount_system.l2.mem_side_port::system.mem_ctrls.port      4819123                       # Packet count per connected requestor and responder (Count)
system.membus.pktCount_system.l2.mem_side_port::total      4819123                       # Packet count per connected requestor and responder (Count)
system.membus.pktCount::total                 4819123                       # Packet count per connected requestor and responder (Count)
system.membus.pktSize_system.l2.mem_side_port::system.mem_ctrls.port    136419776                       # Cumulative packet size per connected requestor and responder (Byte)
system.membus.pktSize_system.l2.mem_side_port::total    136419776                       # Cumulative packet size per connected requestor and responder (Byte)
system.membus.pktSize::total                136419776                       # Cumulative packet size per connected requestor and responder (Byte)
system.membus.snoops                                0                       # Total snoops (Count)
system.membus.snoopTraffic                          0                       # Total snoop traffic (Byte)
system.membus.snoopFanout::samples            1617336                       # Request fanout histogram (Count)
system.membus.snoopFanout::mean                     0                       # Request fanout histogram (Count)
system.membus.snoopFanout::stdev                    0                       # Request fanout histogram (Count)
system.membus.snoopFanout::underflows               0      0.00%      0.00% # Request fanout histogram (Count)
system.membus.snoopFanout::0                  1617336    100.00%    100.00% # Request fanout histogram (Count)
system.membus.snoopFanout::1                        0      0.00%    100.00% # Request fanout histogram (Count)
system.membus.snoopFanout::overflows                0      0.00%    100.00% # Request fanout histogram (Count)
system.membus.snoopFanout::min_value                0                       # Request fanout histogram (Count)
system.membus.snoopFanout::max_value                0                       # Request fanout histogram (Count)
system.membus.snoopFanout::total              1617336                       # Request fanout histogram (Count)
system.membus.power_state.pwrStateResidencyTicks::UNDEFINED 1172897878471                       # Cumulative time (in ticks) in various power states (Tick)
system.membus.reqLayer2.occupancy         17215791383                       # Layer occupancy (ticks) (Tick)
system.membus.reqLayer2.utilization               0.0                       # Layer utilization (Ratio)
system.membus.respLayer1.occupancy        22751888772                       # Layer occupancy (ticks) (Tick)
system.membus.respLayer1.utilization              0.0                       # Layer utilization (Ratio)
system.membus.snoop_filter.totRequests        3201787                       # Total number of requests made to the snoop filter. (Count)
system.membus.snoop_filter.hitSingleRequests      1584466                       # Number of requests hitting in the snoop filter with a single holder of the requested data. (Count)
system.membus.snoop_filter.hitMultiRequests            0                       # Number of requests hitting in the snoop filter with multiple (>1) holders of the requested data. (Count)
system.membus.snoop_filter.totSnoops                0                       # Total number of snoops made to the snoop filter. (Count)
system.membus.snoop_filter.hitSingleSnoops            0                       # Number of snoops hitting in the snoop filter with a single holder of the requested data. (Count)
system.membus.snoop_filter.hitMultiSnoops            0                       # Number of snoops hitting in the snoop filter with multiple (>1) holders of the requested data. (Count)
system.tol2bus.transDist::ReadResp           16535125                       # Transaction distribution (Count)
system.tol2bus.transDist::WritebackDirty     15209542                       # Transaction distribution (Count)
system.tol2bus.transDist::WritebackClean        30600                       # Transaction distribution (Count)
system.tol2bus.transDist::CleanEvict          3696647                       # Transaction distribution (Count)
system.tol2bus.transDist::UpgradeReq               38                       # Transaction distribution (Count)
system.tol2bus.transDist::UpgradeResp              38                       # Transaction distribution (Count)
system.tol2bus.transDist::ReadExReq            816629                       # Transaction distribution (Count)
system.tol2bus.transDist::ReadExResp           816629                       # Transaction distribution (Count)
system.tol2bus.transDist::ReadCleanReq          31159                       # Transaction distribution (Count)
system.tol2bus.transDist::ReadSharedReq      16503967                       # Transaction distribution (Count)
system.tol2bus.pktCount_system.cpu.icache.mem_side_port::system.l2.cpu_side_port        92863                       # Packet count per connected requestor and responder (Count)
system.tol2bus.pktCount_system.cpu.dcache.mem_side_port::system.l2.cpu_side_port     51961352                       # Packet count per connected requestor and responder (Count)
system.tol2bus.pktCount::total               52054215                       # Packet count per connected requestor and responder (Count)
system.tol2bus.pktSize_system.cpu.icache.mem_side_port::system.l2.cpu_side_port      3949056                       # Cumulative packet size per connected requestor and responder (Byte)
system.tol2bus.pktSize_system.cpu.dcache.mem_side_port::system.l2.cpu_side_port   2049018560                       # Cumulative packet size per connected requestor and responder (Byte)
system.tol2bus.pktSize::total              2052967616                       # Cumulative packet size per connected requestor and responder (Byte)
system.tol2bus.snoops                         1586159                       # Total snoops (Count)
system.tol2bus.snoopTraffic                  32913728                       # Total snoop traffic (Byte)
system.tol2bus.snoopFanout::samples          18937898                       # Request fanout histogram (Count)
system.tol2bus.snoopFanout::mean             0.002593                       # Request fanout histogram (Count)
system.tol2bus.snoopFanout::stdev            0.050853                       # Request fanout histogram (Count)
system.tol2bus.snoopFanout::underflows              0      0.00%      0.00% # Request fanout histogram (Count)
system.tol2bus.snoopFanout::0                18888796     99.74%     99.74% # Request fanout histogram (Count)
system.tol2bus.snoopFanout::1                   49102      0.26%    100.00% # Request fanout histogram (Count)
system.tol2bus.snoopFanout::2                       0      0.00%    100.00% # Request fanout histogram (Count)
system.tol2bus.snoopFanout::3                       0      0.00%    100.00% # Request fanout histogram (Count)
system.tol2bus.snoopFanout::4                       0      0.00%    100.00% # Request fanout histogram (Count)
system.tol2bus.snoopFanout::overflows               0      0.00%    100.00% # Request fanout histogram (Count)
system.tol2bus.snoopFanout::min_value               0                       # Request fanout histogram (Count)
system.tol2bus.snoopFanout::max_value               1                       # Request fanout histogram (Count)
system.tol2bus.snoopFanout::total            18937898                       # Request fanout histogram (Count)
system.tol2bus.power_state.pwrStateResidencyTicks::UNDEFINED 1172897878471                       # Cumulative time (in ticks) in various power states (Tick)
system.tol2bus.reqLayer0.occupancy        20080300595                       # Layer occupancy (ticks) (Tick)
system.tol2bus.reqLayer0.utilization              0.0                       # Layer utilization (Ratio)
system.tol2bus.respLayer0.occupancy          29276082                       # Layer occupancy (ticks) (Tick)
system.tol2bus.respLayer0.utilization             0.0                       # Layer utilization (Ratio)
system.tol2bus.respLayer1.occupancy       16264051538                       # Layer occupancy (ticks) (Tick)
system.tol2bus.respLayer1.utilization             0.0                       # Layer utilization (Ratio)
system.tol2bus.snoop_filter.totRequests      34702477                       # Total number of requests made to the snoop filter. (Count)
system.tol2bus.snoop_filter.hitSingleRequests     17350686                       # Number of requests hitting in the snoop filter with a single holder of the requested data. (Count)
system.tol2bus.snoop_filter.hitMultiRequests        47393                       # Number of requests hitting in the snoop filter with multiple (>1) holders of the requested data. (Count)
system.tol2bus.snoop_filter.totSnoops            1707                       # Total number of snoops made to the snoop filter. (Count)
system.tol2bus.snoop_filter.hitSingleSnoops         1707                       # Number of snoops hitting in the snoop filter with a single holder of the requested data. (Count)
system.tol2bus.snoop_filter.hitMultiSnoops            0                       # Number of snoops hitting in the snoop filter with multiple (>1) holders of the requested data. (Count)
system.voltage_domain.voltage                       1                       # Voltage in Volts (Volt)
system.workload.inst.arm                            0                       # number of arm instructions executed (Count)
system.workload.inst.quiesce                        0                       # number of quiesce instructions executed (Count)

---------- End Simulation Statistics   ----------
