
---------- Begin Simulation Statistics ----------
simSeconds                                   0.189675                       # Number of seconds simulated (Second)
simTicks                                 189674556061                       # Number of ticks simulated (Tick)
finalTick                                189674556061                       # Number of ticks from beginning of simulation (restored from checkpoints and never reset) (Tick)
simFreq                                  1000000000000                       # The number of ticks per simulated second ((Tick/Second))
hostSeconds                                    216.03                       # Real time elapsed on the host (Second)
hostTickRate                                878009633                       # The number of ticks simulated per host second (ticks/s) ((Tick/Second))
hostMemory                                    1185680                       # Number of bytes of host memory used (Byte)
simInsts                                     26422505                       # Number of instructions simulated (Count)
simOps                                       51319077                       # Number of ops (including micro ops) simulated (Count)
hostInstRate                                   122311                       # Simulator instruction rate (inst/s) ((Count/Second))
hostOpRate                                     237557                       # Simulator op (including micro ops) rate (op/s) ((Count/Second))
system.clk_domain.clock                          2500                       # Clock period in ticks (Tick)
system.cpu.numCycles                        605988998                       # Number of cpu cycles simulated (Cycle)
system.cpu.cpi                              22.934578                       # CPI: cycles per instruction (core level) ((Cycle/Count))
system.cpu.ipc                               0.043602                       # IPC: instructions per cycle (core level) ((Count/Cycle))
system.cpu.numWorkItemsStarted                      0                       # Number of work items this cpu started (Count)
system.cpu.numWorkItemsCompleted                    0                       # Number of work items this cpu completed (Count)
system.cpu.instsAdded                        51783928                       # Number of instructions added to the IQ (excludes non-spec) (Count)
system.cpu.nonSpecInstsAdded                      995                       # Number of non-speculative instructions added to the IQ (Count)
system.cpu.instsIssued                       51660101                       # Number of instructions issued (Count)
system.cpu.squashedInstsIssued                   1821                       # Number of squashed instructions issued (Count)
system.cpu.squashedInstsExamined               465840                       # Number of squashed instructions iterated over during squash; mainly for profiling (Count)
system.cpu.squashedOperandsExamined            799101                       # Number of squashed operands that are examined and possibly removed from graph (Count)
system.cpu.squashedNonSpecRemoved                 311                       # Number of squashed non-spec instructions that were removed (Count)
system.cpu.numIssuedDist::samples           175397402                       # Number of insts issued each cycle (Count)
system.cpu.numIssuedDist::mean               0.294532                       # Number of insts issued each cycle (Count)
system.cpu.numIssuedDist::stdev              1.218203                       # Number of insts issued each cycle (Count)
system.cpu.numIssuedDist::underflows                0      0.00%      0.00% # Number of insts issued each cycle (Count)
system.cpu.numIssuedDist::0                 163080604     92.98%     92.98% # Number of insts issued each cycle (Count)
system.cpu.numIssuedDist::1                   2128836      1.21%     94.19% # Number of insts issued each cycle (Count)
system.cpu.numIssuedDist::2                    901437      0.51%     94.71% # Number of insts issued each cycle (Count)
system.cpu.numIssuedDist::3                   2296613      1.31%     96.01% # Number of insts issued each cycle (Count)
system.cpu.numIssuedDist::4                   1401665      0.80%     96.81% # Number of insts issued each cycle (Count)
system.cpu.numIssuedDist::5                    993126      0.57%     97.38% # Number of insts issued each cycle (Count)
system.cpu.numIssuedDist::6                   2591153      1.48%     98.86% # Number of insts issued each cycle (Count)
system.cpu.numIssuedDist::7                   1312400      0.75%     99.61% # Number of insts issued each cycle (Count)
system.cpu.numIssuedDist::8                    691568      0.39%    100.00% # Number of insts issued each cycle (Count)
system.cpu.numIssuedDist::overflows                 0      0.00%    100.00% # Number of insts issued each cycle (Count)
system.cpu.numIssuedDist::min_value                 0                       # Number of insts issued each cycle (Count)
system.cpu.numIssuedDist::max_value                 8                       # Number of insts issued each cycle (Count)
system.cpu.numIssuedDist::total             175397402                       # Number of insts issued each cycle (Count)
system.cpu.statFuBusy::No_OpClass                   0      0.00%      0.00% # attempts to use FU when none available (Count)
system.cpu.statFuBusy::IntAlu                  631806     99.33%     99.33% # attempts to use FU when none available (Count)
system.cpu.statFuBusy::IntMult                      0      0.00%     99.33% # attempts to use FU when none available (Count)
system.cpu.statFuBusy::IntDiv                       0      0.00%     99.33% # attempts to use FU when none available (Count)
system.cpu.statFuBusy::FloatAdd                     0      0.00%     99.33% # attempts to use FU when none available (Count)
system.cpu.statFuBusy::FloatCmp                     0      0.00%     99.33% # attempts to use FU when none available (Count)
system.cpu.statFuBusy::FloatCvt                     0      0.00%     99.33% # attempts to use FU when none available (Count)
system.cpu.statFuBusy::FloatMult                    0      0.00%     99.33% # attempts to use FU when none available (Count)
system.cpu.statFuBusy::FloatMultAcc                 0      0.00%     99.33% # attempts to use FU when none available (Count)
system.cpu.statFuBusy::FloatDiv                     0      0.00%     99.33% # attempts to use FU when none available (Count)
system.cpu.statFuBusy::FloatMisc                    0      0.00%     99.33% # attempts to use FU when none available (Count)
system.cpu.statFuBusy::FloatSqrt                    0      0.00%     99.33% # attempts to use FU when none available (Count)
system.cpu.statFuBusy::SimdAdd                      0      0.00%     99.33% # attempts to use FU when none available (Count)
system.cpu.statFuBusy::SimdAddAcc                   0      0.00%     99.33% # attempts to use FU when none available (Count)
system.cpu.statFuBusy::SimdAlu                     38      0.01%     99.33% # attempts to use FU when none available (Count)
system.cpu.statFuBusy::SimdCmp                      0      0.00%     99.33% # attempts to use FU when none available (Count)
system.cpu.statFuBusy::SimdCvt                      7      0.00%     99.34% # attempts to use FU when none available (Count)
system.cpu.statFuBusy::SimdMisc                     2      0.00%     99.34% # attempts to use FU when none available (Count)
system.cpu.statFuBusy::SimdMult                     0      0.00%     99.34% # attempts to use FU when none available (Count)
system.cpu.statFuBusy::SimdMultAcc                  0      0.00%     99.34% # attempts to use FU when none available (Count)
system.cpu.statFuBusy::SimdMatMultAcc               0      0.00%     99.34% # attempts to use FU when none available (Count)
system.cpu.statFuBusy::SimdShift                    0      0.00%     99.34% # attempts to use FU when none available (Count)
system.cpu.statFuBusy::SimdShiftAcc                 0      0.00%     99.34% # attempts to use FU when none available (Count)
system.cpu.statFuBusy::SimdDiv                      0      0.00%     99.34% # attempts to use FU when none available (Count)
system.cpu.statFuBusy::SimdSqrt                     0      0.00%     99.34% # attempts to use FU when none available (Count)
system.cpu.statFuBusy::SimdFloatAdd                 0      0.00%     99.34% # attempts to use FU when none available (Count)
system.cpu.statFuBusy::SimdFloatAlu                 0      0.00%     99.34% # attempts to use FU when none available (Count)
system.cpu.statFuBusy::SimdFloatCmp                 0      0.00%     99.34% # attempts to use FU when none available (Count)
system.cpu.statFuBusy::SimdFloatCvt                 1      0.00%     99.34% # attempts to use FU when none available (Count)
system.cpu.statFuBusy::SimdFloatDiv                 0      0.00%     99.34% # attempts to use FU when none available (Count)
system.cpu.statFuBusy::SimdFloatMisc                0      0.00%     99.34% # attempts to use FU when none available (Count)
system.cpu.statFuBusy::SimdFloatMult                0      0.00%     99.34% # attempts to use FU when none available (Count)
system.cpu.statFuBusy::SimdFloatMultAcc             0      0.00%     99.34% # attempts to use FU when none available (Count)
system.cpu.statFuBusy::SimdFloatMatMultAcc            0      0.00%     99.34% # attempts to use FU when none available (Count)
system.cpu.statFuBusy::SimdFloatSqrt                0      0.00%     99.34% # attempts to use FU when none available (Count)
system.cpu.statFuBusy::SimdReduceAdd                0      0.00%     99.34% # attempts to use FU when none available (Count)
system.cpu.statFuBusy::SimdReduceAlu                0      0.00%     99.34% # attempts to use FU when none available (Count)
system.cpu.statFuBusy::SimdReduceCmp                0      0.00%     99.34% # attempts to use FU when none available (Count)
system.cpu.statFuBusy::SimdFloatReduceAdd            0      0.00%     99.34% # attempts to use FU when none available (Count)
system.cpu.statFuBusy::SimdFloatReduceCmp            0      0.00%     99.34% # attempts to use FU when none available (Count)
system.cpu.statFuBusy::SimdAes                      0      0.00%     99.34% # attempts to use FU when none available (Count)
system.cpu.statFuBusy::SimdAesMix                   0      0.00%     99.34% # attempts to use FU when none available (Count)
system.cpu.statFuBusy::SimdSha1Hash                 0      0.00%     99.34% # attempts to use FU when none available (Count)
system.cpu.statFuBusy::SimdSha1Hash2                0      0.00%     99.34% # attempts to use FU when none available (Count)
system.cpu.statFuBusy::SimdSha256Hash               0      0.00%     99.34% # attempts to use FU when none available (Count)
system.cpu.statFuBusy::SimdSha256Hash2              0      0.00%     99.34% # attempts to use FU when none available (Count)
system.cpu.statFuBusy::SimdShaSigma2                0      0.00%     99.34% # attempts to use FU when none available (Count)
system.cpu.statFuBusy::SimdShaSigma3                0      0.00%     99.34% # attempts to use FU when none available (Count)
system.cpu.statFuBusy::SimdPredAlu                  0      0.00%     99.34% # attempts to use FU when none available (Count)
system.cpu.statFuBusy::Matrix                       0      0.00%     99.34% # attempts to use FU when none available (Count)
system.cpu.statFuBusy::MatrixMov                    0      0.00%     99.34% # attempts to use FU when none available (Count)
system.cpu.statFuBusy::MatrixOP                     0      0.00%     99.34% # attempts to use FU when none available (Count)
system.cpu.statFuBusy::MemRead                   2518      0.40%     99.73% # attempts to use FU when none available (Count)
system.cpu.statFuBusy::MemWrite                  1588      0.25%     99.98% # attempts to use FU when none available (Count)
system.cpu.statFuBusy::FloatMemRead               101      0.02%    100.00% # attempts to use FU when none available (Count)
system.cpu.statFuBusy::FloatMemWrite               13      0.00%    100.00% # attempts to use FU when none available (Count)
system.cpu.statFuBusy::IprAccess                    0      0.00%    100.00% # attempts to use FU when none available (Count)
system.cpu.statFuBusy::InstPrefetch                 0      0.00%    100.00% # attempts to use FU when none available (Count)
system.cpu.statFuBusy::SimdUnitStrideLoad            0      0.00%    100.00% # attempts to use FU when none available (Count)
system.cpu.statFuBusy::SimdUnitStrideStore            0      0.00%    100.00% # attempts to use FU when none available (Count)
system.cpu.statFuBusy::SimdUnitStrideMaskLoad            0      0.00%    100.00% # attempts to use FU when none available (Count)
system.cpu.statFuBusy::SimdUnitStrideMaskStore            0      0.00%    100.00% # attempts to use FU when none available (Count)
system.cpu.statFuBusy::SimdStridedLoad              0      0.00%    100.00% # attempts to use FU when none available (Count)
system.cpu.statFuBusy::SimdStridedStore             0      0.00%    100.00% # attempts to use FU when none available (Count)
system.cpu.statFuBusy::SimdIndexedLoad              0      0.00%    100.00% # attempts to use FU when none available (Count)
system.cpu.statFuBusy::SimdIndexedStore             0      0.00%    100.00% # attempts to use FU when none available (Count)
system.cpu.statFuBusy::SimdWholeRegisterLoad            0      0.00%    100.00% # attempts to use FU when none available (Count)
system.cpu.statFuBusy::SimdWholeRegisterStore            0      0.00%    100.00% # attempts to use FU when none available (Count)
system.cpu.statFuBusy::SimdUnitStrideFaultOnlyFirstLoad            0      0.00%    100.00% # attempts to use FU when none available (Count)
system.cpu.statFuBusy::SimdUnitStrideSegmentedLoad            0      0.00%    100.00% # attempts to use FU when none available (Count)
system.cpu.statFuBusy::SimdUnitStrideSegmentedStore            0      0.00%    100.00% # attempts to use FU when none available (Count)
system.cpu.statFuBusy::SimdExt                      0      0.00%    100.00% # attempts to use FU when none available (Count)
system.cpu.statFuBusy::SimdFloatExt                 0      0.00%    100.00% # attempts to use FU when none available (Count)
system.cpu.statFuBusy::SimdConfig                   0      0.00%    100.00% # attempts to use FU when none available (Count)
system.cpu.statIssuedInstType_0::No_OpClass         5698      0.01%      0.01% # Number of instructions issued per FU type, per thread (Count)
system.cpu.statIssuedInstType_0::IntAlu      38222754     73.99%     74.00% # Number of instructions issued per FU type, per thread (Count)
system.cpu.statIssuedInstType_0::IntMult        50932      0.10%     74.10% # Number of instructions issued per FU type, per thread (Count)
system.cpu.statIssuedInstType_0::IntDiv          4364      0.01%     74.11% # Number of instructions issued per FU type, per thread (Count)
system.cpu.statIssuedInstType_0::FloatAdd       231904      0.45%     74.56% # Number of instructions issued per FU type, per thread (Count)
system.cpu.statIssuedInstType_0::FloatCmp            0      0.00%     74.56% # Number of instructions issued per FU type, per thread (Count)
system.cpu.statIssuedInstType_0::FloatCvt          458      0.00%     74.56% # Number of instructions issued per FU type, per thread (Count)
system.cpu.statIssuedInstType_0::FloatMult            0      0.00%     74.56% # Number of instructions issued per FU type, per thread (Count)
system.cpu.statIssuedInstType_0::FloatMultAcc            0      0.00%     74.56% # Number of instructions issued per FU type, per thread (Count)
system.cpu.statIssuedInstType_0::FloatDiv            0      0.00%     74.56% # Number of instructions issued per FU type, per thread (Count)
system.cpu.statIssuedInstType_0::FloatMisc            0      0.00%     74.56% # Number of instructions issued per FU type, per thread (Count)
system.cpu.statIssuedInstType_0::FloatSqrt            0      0.00%     74.56% # Number of instructions issued per FU type, per thread (Count)
system.cpu.statIssuedInstType_0::SimdAdd           16      0.00%     74.56% # Number of instructions issued per FU type, per thread (Count)
system.cpu.statIssuedInstType_0::SimdAddAcc            0      0.00%     74.56% # Number of instructions issued per FU type, per thread (Count)
system.cpu.statIssuedInstType_0::SimdAlu       102649      0.20%     74.76% # Number of instructions issued per FU type, per thread (Count)
system.cpu.statIssuedInstType_0::SimdCmp            0      0.00%     74.76% # Number of instructions issued per FU type, per thread (Count)
system.cpu.statIssuedInstType_0::SimdCvt          611      0.00%     74.76% # Number of instructions issued per FU type, per thread (Count)
system.cpu.statIssuedInstType_0::SimdMisc        77551      0.15%     74.91% # Number of instructions issued per FU type, per thread (Count)
system.cpu.statIssuedInstType_0::SimdMult            0      0.00%     74.91% # Number of instructions issued per FU type, per thread (Count)
system.cpu.statIssuedInstType_0::SimdMultAcc            0      0.00%     74.91% # Number of instructions issued per FU type, per thread (Count)
system.cpu.statIssuedInstType_0::SimdMatMultAcc            0      0.00%     74.91% # Number of instructions issued per FU type, per thread (Count)
system.cpu.statIssuedInstType_0::SimdShift            0      0.00%     74.91% # Number of instructions issued per FU type, per thread (Count)
system.cpu.statIssuedInstType_0::SimdShiftAcc            0      0.00%     74.91% # Number of instructions issued per FU type, per thread (Count)
system.cpu.statIssuedInstType_0::SimdDiv            0      0.00%     74.91% # Number of instructions issued per FU type, per thread (Count)
system.cpu.statIssuedInstType_0::SimdSqrt            0      0.00%     74.91% # Number of instructions issued per FU type, per thread (Count)
system.cpu.statIssuedInstType_0::SimdFloatAdd        50699      0.10%     75.00% # Number of instructions issued per FU type, per thread (Count)
system.cpu.statIssuedInstType_0::SimdFloatAlu            0      0.00%     75.00% # Number of instructions issued per FU type, per thread (Count)
system.cpu.statIssuedInstType_0::SimdFloatCmp            0      0.00%     75.00% # Number of instructions issued per FU type, per thread (Count)
system.cpu.statIssuedInstType_0::SimdFloatCvt       102566      0.20%     75.20% # Number of instructions issued per FU type, per thread (Count)
system.cpu.statIssuedInstType_0::SimdFloatDiv        25344      0.05%     75.25% # Number of instructions issued per FU type, per thread (Count)
system.cpu.statIssuedInstType_0::SimdFloatMisc            0      0.00%     75.25% # Number of instructions issued per FU type, per thread (Count)
system.cpu.statIssuedInstType_0::SimdFloatMult        25738      0.05%     75.30% # Number of instructions issued per FU type, per thread (Count)
system.cpu.statIssuedInstType_0::SimdFloatMultAcc            0      0.00%     75.30% # Number of instructions issued per FU type, per thread (Count)
system.cpu.statIssuedInstType_0::SimdFloatMatMultAcc            0      0.00%     75.30% # Number of instructions issued per FU type, per thread (Count)
system.cpu.statIssuedInstType_0::SimdFloatSqrt            0      0.00%     75.30% # Number of instructions issued per FU type, per thread (Count)
system.cpu.statIssuedInstType_0::SimdReduceAdd            0      0.00%     75.30% # Number of instructions issued per FU type, per thread (Count)
system.cpu.statIssuedInstType_0::SimdReduceAlu            0      0.00%     75.30% # Number of instructions issued per FU type, per thread (Count)
system.cpu.statIssuedInstType_0::SimdReduceCmp            0      0.00%     75.30% # Number of instructions issued per FU type, per thread (Count)
system.cpu.statIssuedInstType_0::SimdFloatReduceAdd            0      0.00%     75.30% # Number of instructions issued per FU type, per thread (Count)
system.cpu.statIssuedInstType_0::SimdFloatReduceCmp            0      0.00%     75.30% # Number of instructions issued per FU type, per thread (Count)
system.cpu.statIssuedInstType_0::SimdAes            0      0.00%     75.30% # Number of instructions issued per FU type, per thread (Count)
system.cpu.statIssuedInstType_0::SimdAesMix            0      0.00%     75.30% # Number of instructions issued per FU type, per thread (Count)
system.cpu.statIssuedInstType_0::SimdSha1Hash            0      0.00%     75.30% # Number of instructions issued per FU type, per thread (Count)
system.cpu.statIssuedInstType_0::SimdSha1Hash2            0      0.00%     75.30% # Number of instructions issued per FU type, per thread (Count)
system.cpu.statIssuedInstType_0::SimdSha256Hash            0      0.00%     75.30% # Number of instructions issued per FU type, per thread (Count)
system.cpu.statIssuedInstType_0::SimdSha256Hash2            0      0.00%     75.30% # Number of instructions issued per FU type, per thread (Count)
system.cpu.statIssuedInstType_0::SimdShaSigma2            0      0.00%     75.30% # Number of instructions issued per FU type, per thread (Count)
system.cpu.statIssuedInstType_0::SimdShaSigma3            0      0.00%     75.30% # Number of instructions issued per FU type, per thread (Count)
system.cpu.statIssuedInstType_0::SimdPredAlu            0      0.00%     75.30% # Number of instructions issued per FU type, per thread (Count)
system.cpu.statIssuedInstType_0::Matrix             0      0.00%     75.30% # Number of instructions issued per FU type, per thread (Count)
system.cpu.statIssuedInstType_0::MatrixMov            0      0.00%     75.30% # Number of instructions issued per FU type, per thread (Count)
system.cpu.statIssuedInstType_0::MatrixOP            0      0.00%     75.30% # Number of instructions issued per FU type, per thread (Count)
system.cpu.statIssuedInstType_0::MemRead      7979242     15.45%     90.75% # Number of instructions issued per FU type, per thread (Count)
system.cpu.statIssuedInstType_0::MemWrite      4416166      8.55%     99.30% # Number of instructions issued per FU type, per thread (Count)
system.cpu.statIssuedInstType_0::FloatMemRead       258859      0.50%     99.80% # Number of instructions issued per FU type, per thread (Count)
system.cpu.statIssuedInstType_0::FloatMemWrite       104550      0.20%    100.00% # Number of instructions issued per FU type, per thread (Count)
system.cpu.statIssuedInstType_0::IprAccess            0      0.00%    100.00% # Number of instructions issued per FU type, per thread (Count)
system.cpu.statIssuedInstType_0::InstPrefetch            0      0.00%    100.00% # Number of instructions issued per FU type, per thread (Count)
system.cpu.statIssuedInstType_0::SimdUnitStrideLoad            0      0.00%    100.00% # Number of instructions issued per FU type, per thread (Count)
system.cpu.statIssuedInstType_0::SimdUnitStrideStore            0      0.00%    100.00% # Number of instructions issued per FU type, per thread (Count)
system.cpu.statIssuedInstType_0::SimdUnitStrideMaskLoad            0      0.00%    100.00% # Number of instructions issued per FU type, per thread (Count)
system.cpu.statIssuedInstType_0::SimdUnitStrideMaskStore            0      0.00%    100.00% # Number of instructions issued per FU type, per thread (Count)
system.cpu.statIssuedInstType_0::SimdStridedLoad            0      0.00%    100.00% # Number of instructions issued per FU type, per thread (Count)
system.cpu.statIssuedInstType_0::SimdStridedStore            0      0.00%    100.00% # Number of instructions issued per FU type, per thread (Count)
system.cpu.statIssuedInstType_0::SimdIndexedLoad            0      0.00%    100.00% # Number of instructions issued per FU type, per thread (Count)
system.cpu.statIssuedInstType_0::SimdIndexedStore            0      0.00%    100.00% # Number of instructions issued per FU type, per thread (Count)
system.cpu.statIssuedInstType_0::SimdWholeRegisterLoad            0      0.00%    100.00% # Number of instructions issued per FU type, per thread (Count)
system.cpu.statIssuedInstType_0::SimdWholeRegisterStore            0      0.00%    100.00% # Number of instructions issued per FU type, per thread (Count)
system.cpu.statIssuedInstType_0::SimdUnitStrideFaultOnlyFirstLoad            0      0.00%    100.00% # Number of instructions issued per FU type, per thread (Count)
system.cpu.statIssuedInstType_0::SimdUnitStrideSegmentedLoad            0      0.00%    100.00% # Number of instructions issued per FU type, per thread (Count)
system.cpu.statIssuedInstType_0::SimdUnitStrideSegmentedStore            0      0.00%    100.00% # Number of instructions issued per FU type, per thread (Count)
system.cpu.statIssuedInstType_0::SimdExt            0      0.00%    100.00% # Number of instructions issued per FU type, per thread (Count)
system.cpu.statIssuedInstType_0::SimdFloatExt            0      0.00%    100.00% # Number of instructions issued per FU type, per thread (Count)
system.cpu.statIssuedInstType_0::SimdConfig            0      0.00%    100.00% # Number of instructions issued per FU type, per thread (Count)
system.cpu.statIssuedInstType_0::total       51660101                       # Number of instructions issued per FU type, per thread (Count)
system.cpu.issueRate                         0.085249                       # Inst issue rate ((Count/Cycle))
system.cpu.fuBusy                              636074                       # FU busy when requested (Count)
system.cpu.fuBusyRate                        0.012313                       # FU busy rate (busy events/executed inst) ((Count/Count))
system.cpu.intInstQueueReads                277393158                       # Number of integer instruction queue reads (Count)
system.cpu.intInstQueueWrites                51268450                       # Number of integer instruction queue writes (Count)
system.cpu.intInstQueueWakeupAccesses        50640116                       # Number of integer instruction queue wakeup accesses (Count)
system.cpu.fpInstQueueReads                   1962341                       # Number of floating instruction queue reads (Count)
system.cpu.fpInstQueueWrites                   982739                       # Number of floating instruction queue writes (Count)
system.cpu.fpInstQueueWakeupAccesses           980881                       # Number of floating instruction queue wakeup accesses (Count)
system.cpu.vecInstQueueReads                        0                       # Number of vector instruction queue reads (Count)
system.cpu.vecInstQueueWrites                       0                       # Number of vector instruction queue writes (Count)
system.cpu.vecInstQueueWakeupAccesses               0                       # Number of vector instruction queue wakeup accesses (Count)
system.cpu.intAluAccesses                    51309241                       # Number of integer alu accesses (Count)
system.cpu.fpAluAccesses                       981236                       # Number of floating point alu accesses (Count)
system.cpu.vecAluAccesses                           0                       # Number of vector alu accesses (Count)
system.cpu.numSquashedInsts                     21735                       # Number of squashed instructions skipped in execute (Count)
system.cpu.numSwp                                   0                       # Number of swp insts executed (Count)
system.cpu.timesIdled                            1809                       # Number of times that the entire CPU went into an idle state and unscheduled itself (Count)
system.cpu.idleCycles                       430591596                       # Total number of cycles that the CPU has spent unscheduled due to idling (Cycle)
system.cpu.MemDepUnit__0.insertedLoads        8251843                       # Number of loads inserted to the mem dependence unit. (Count)
system.cpu.MemDepUnit__0.insertedStores       4527170                       # Number of stores inserted to the mem dependence unit. (Count)
system.cpu.MemDepUnit__0.conflictingLoads      1066804                       # Number of conflicting loads. (Count)
system.cpu.MemDepUnit__0.conflictingStores        35052                       # Number of conflicting stores. (Count)
system.cpu.MemDepUnit__1.insertedLoads              0                       # Number of loads inserted to the mem dependence unit. (Count)
system.cpu.MemDepUnit__1.insertedStores             0                       # Number of stores inserted to the mem dependence unit. (Count)
system.cpu.MemDepUnit__1.conflictingLoads            0                       # Number of conflicting loads. (Count)
system.cpu.MemDepUnit__1.conflictingStores            0                       # Number of conflicting stores. (Count)
system.cpu.MemDepUnit__2.insertedLoads              0                       # Number of loads inserted to the mem dependence unit. (Count)
system.cpu.MemDepUnit__2.insertedStores             0                       # Number of stores inserted to the mem dependence unit. (Count)
system.cpu.MemDepUnit__2.conflictingLoads            0                       # Number of conflicting loads. (Count)
system.cpu.MemDepUnit__2.conflictingStores            0                       # Number of conflicting stores. (Count)
system.cpu.MemDepUnit__3.insertedLoads              0                       # Number of loads inserted to the mem dependence unit. (Count)
system.cpu.MemDepUnit__3.insertedStores             0                       # Number of stores inserted to the mem dependence unit. (Count)
system.cpu.MemDepUnit__3.conflictingLoads            0                       # Number of conflicting loads. (Count)
system.cpu.MemDepUnit__3.conflictingStores            0                       # Number of conflicting stores. (Count)
system.cpu.branchPred.lookups_0::NoBranch            0      0.00%      0.00% # Number of BP lookups (Count)
system.cpu.branchPred.lookups_0::Return       1123192     19.69%     19.69% # Number of BP lookups (Count)
system.cpu.branchPred.lookups_0::CallDirect      1103699     19.34%     39.03% # Number of BP lookups (Count)
system.cpu.branchPred.lookups_0::CallIndirect          654      0.01%     39.04% # Number of BP lookups (Count)
system.cpu.branchPred.lookups_0::DirectCond      3137750     54.99%     94.03% # Number of BP lookups (Count)
system.cpu.branchPred.lookups_0::DirectUncond        15631      0.27%     94.31% # Number of BP lookups (Count)
system.cpu.branchPred.lookups_0::IndirectCond            0      0.00%     94.31% # Number of BP lookups (Count)
system.cpu.branchPred.lookups_0::IndirectUncond       324883      5.69%    100.00% # Number of BP lookups (Count)
system.cpu.branchPred.lookups_0::total        5705809                       # Number of BP lookups (Count)
system.cpu.branchPred.squashes_0::NoBranch            0      0.00%      0.00% # Number of branches that got squashed (completely removed) as an earlier branch was mispredicted. (Count)
system.cpu.branchPred.squashes_0::Return        25490     20.06%     20.06% # Number of branches that got squashed (completely removed) as an earlier branch was mispredicted. (Count)
system.cpu.branchPred.squashes_0::CallDirect         6432      5.06%     25.13% # Number of branches that got squashed (completely removed) as an earlier branch was mispredicted. (Count)
system.cpu.branchPred.squashes_0::CallIndirect          215      0.17%     25.29% # Number of branches that got squashed (completely removed) as an earlier branch was mispredicted. (Count)
system.cpu.branchPred.squashes_0::DirectCond        85185     67.05%     92.34% # Number of branches that got squashed (completely removed) as an earlier branch was mispredicted. (Count)
system.cpu.branchPred.squashes_0::DirectUncond         6382      5.02%     97.36% # Number of branches that got squashed (completely removed) as an earlier branch was mispredicted. (Count)
system.cpu.branchPred.squashes_0::IndirectCond            0      0.00%     97.36% # Number of branches that got squashed (completely removed) as an earlier branch was mispredicted. (Count)
system.cpu.branchPred.squashes_0::IndirectUncond         3348      2.64%    100.00% # Number of branches that got squashed (completely removed) as an earlier branch was mispredicted. (Count)
system.cpu.branchPred.squashes_0::total        127052                       # Number of branches that got squashed (completely removed) as an earlier branch was mispredicted. (Count)
system.cpu.branchPred.corrected_0::NoBranch            0      0.00%      0.00% # Number of branches that got corrected but not yet commited. Branches get corrected by decode or after execute. Also a branch misprediction can be detected out-of-order. Therefore, a corrected branch might not end up beeing committed in case an even earlier branch was mispredicted (Count)
system.cpu.branchPred.corrected_0::Return           19      0.08%      0.08% # Number of branches that got corrected but not yet commited. Branches get corrected by decode or after execute. Also a branch misprediction can be detected out-of-order. Therefore, a corrected branch might not end up beeing committed in case an even earlier branch was mispredicted (Count)
system.cpu.branchPred.corrected_0::CallDirect         1624      7.14%      7.23% # Number of branches that got corrected but not yet commited. Branches get corrected by decode or after execute. Also a branch misprediction can be detected out-of-order. Therefore, a corrected branch might not end up beeing committed in case an even earlier branch was mispredicted (Count)
system.cpu.branchPred.corrected_0::CallIndirect          183      0.80%      8.03% # Number of branches that got corrected but not yet commited. Branches get corrected by decode or after execute. Also a branch misprediction can be detected out-of-order. Therefore, a corrected branch might not end up beeing committed in case an even earlier branch was mispredicted (Count)
system.cpu.branchPred.corrected_0::DirectCond        19179     84.35%     92.38% # Number of branches that got corrected but not yet commited. Branches get corrected by decode or after execute. Also a branch misprediction can be detected out-of-order. Therefore, a corrected branch might not end up beeing committed in case an even earlier branch was mispredicted (Count)
system.cpu.branchPred.corrected_0::DirectUncond         1399      6.15%     98.53% # Number of branches that got corrected but not yet commited. Branches get corrected by decode or after execute. Also a branch misprediction can be detected out-of-order. Therefore, a corrected branch might not end up beeing committed in case an even earlier branch was mispredicted (Count)
system.cpu.branchPred.corrected_0::IndirectCond            0      0.00%     98.53% # Number of branches that got corrected but not yet commited. Branches get corrected by decode or after execute. Also a branch misprediction can be detected out-of-order. Therefore, a corrected branch might not end up beeing committed in case an even earlier branch was mispredicted (Count)
system.cpu.branchPred.corrected_0::IndirectUncond          334      1.47%    100.00% # Number of branches that got corrected but not yet commited. Branches get corrected by decode or after execute. Also a branch misprediction can be detected out-of-order. Therefore, a corrected branch might not end up beeing committed in case an even earlier branch was mispredicted (Count)
system.cpu.branchPred.corrected_0::total        22738                       # Number of branches that got corrected but not yet commited. Branches get corrected by decode or after execute. Also a branch misprediction can be detected out-of-order. Therefore, a corrected branch might not end up beeing committed in case an even earlier branch was mispredicted (Count)
system.cpu.branchPred.earlyResteers_0::NoBranch            0                       # Number of branches that got redirected after decode. (Count)
system.cpu.branchPred.earlyResteers_0::Return            0                       # Number of branches that got redirected after decode. (Count)
system.cpu.branchPred.earlyResteers_0::CallDirect            0                       # Number of branches that got redirected after decode. (Count)
system.cpu.branchPred.earlyResteers_0::CallIndirect            0                       # Number of branches that got redirected after decode. (Count)
system.cpu.branchPred.earlyResteers_0::DirectCond            0                       # Number of branches that got redirected after decode. (Count)
system.cpu.branchPred.earlyResteers_0::DirectUncond            0                       # Number of branches that got redirected after decode. (Count)
system.cpu.branchPred.earlyResteers_0::IndirectCond            0                       # Number of branches that got redirected after decode. (Count)
system.cpu.branchPred.earlyResteers_0::IndirectUncond            0                       # Number of branches that got redirected after decode. (Count)
system.cpu.branchPred.earlyResteers_0::total            0                       # Number of branches that got redirected after decode. (Count)
system.cpu.branchPred.committed_0::NoBranch            0      0.00%      0.00% # Number of branches finally committed  (Count)
system.cpu.branchPred.committed_0::Return      1097702     19.68%     19.68% # Number of branches finally committed  (Count)
system.cpu.branchPred.committed_0::CallDirect      1097267     19.67%     39.35% # Number of branches finally committed  (Count)
system.cpu.branchPred.committed_0::CallIndirect          439      0.01%     39.35% # Number of branches finally committed  (Count)
system.cpu.branchPred.committed_0::DirectCond      3052564     54.72%     94.07% # Number of branches finally committed  (Count)
system.cpu.branchPred.committed_0::DirectUncond         9249      0.17%     94.24% # Number of branches finally committed  (Count)
system.cpu.branchPred.committed_0::IndirectCond            0      0.00%     94.24% # Number of branches finally committed  (Count)
system.cpu.branchPred.committed_0::IndirectUncond       321535      5.76%    100.00% # Number of branches finally committed  (Count)
system.cpu.branchPred.committed_0::total      5578756                       # Number of branches finally committed  (Count)
system.cpu.branchPred.mispredicted_0::NoBranch            0      0.00%      0.00% # Number of committed branches that were mispredicted. (Count)
system.cpu.branchPred.mispredicted_0::Return           11      0.05%      0.05% # Number of committed branches that were mispredicted. (Count)
system.cpu.branchPred.mispredicted_0::CallDirect         1388      6.67%      6.73% # Number of committed branches that were mispredicted. (Count)
system.cpu.branchPred.mispredicted_0::CallIndirect          167      0.80%      7.53% # Number of committed branches that were mispredicted. (Count)
system.cpu.branchPred.mispredicted_0::DirectCond        17869     85.90%     93.43% # Number of committed branches that were mispredicted. (Count)
system.cpu.branchPred.mispredicted_0::DirectUncond         1063      5.11%     98.54% # Number of committed branches that were mispredicted. (Count)
system.cpu.branchPred.mispredicted_0::IndirectCond            0      0.00%     98.54% # Number of committed branches that were mispredicted. (Count)
system.cpu.branchPred.mispredicted_0::IndirectUncond          303      1.46%    100.00% # Number of committed branches that were mispredicted. (Count)
system.cpu.branchPred.mispredicted_0::total        20801                       # Number of committed branches that were mispredicted. (Count)
system.cpu.branchPred.targetProvider_0::NoTarget      2019683     35.40%     35.40% # The component providing the target for taken branches (Count)
system.cpu.branchPred.targetProvider_0::BTB      2240313     39.26%     74.66% # The component providing the target for taken branches (Count)
system.cpu.branchPred.targetProvider_0::RAS      1123183     19.68%     94.35% # The component providing the target for taken branches (Count)
system.cpu.branchPred.targetProvider_0::Indirect       322630      5.65%    100.00% # The component providing the target for taken branches (Count)
system.cpu.branchPred.targetProvider_0::total      5705809                       # The component providing the target for taken branches (Count)
system.cpu.branchPred.targetWrong_0::NoBranch        17060     75.95%     75.95% # Number of branches where the target was incorrect or not available at prediction time. (Count)
system.cpu.branchPred.targetWrong_0::Return         5361     23.87%     99.82% # Number of branches where the target was incorrect or not available at prediction time. (Count)
system.cpu.branchPred.targetWrong_0::CallDirect           19      0.08%     99.91% # Number of branches where the target was incorrect or not available at prediction time. (Count)
system.cpu.branchPred.targetWrong_0::CallIndirect           21      0.09%    100.00% # Number of branches where the target was incorrect or not available at prediction time. (Count)
system.cpu.branchPred.targetWrong_0::DirectCond            0      0.00%    100.00% # Number of branches where the target was incorrect or not available at prediction time. (Count)
system.cpu.branchPred.targetWrong_0::DirectUncond            0      0.00%    100.00% # Number of branches where the target was incorrect or not available at prediction time. (Count)
system.cpu.branchPred.targetWrong_0::IndirectCond            0      0.00%    100.00% # Number of branches where the target was incorrect or not available at prediction time. (Count)
system.cpu.branchPred.targetWrong_0::IndirectUncond            0      0.00%    100.00% # Number of branches where the target was incorrect or not available at prediction time. (Count)
system.cpu.branchPred.targetWrong_0::total        22461                       # Number of branches where the target was incorrect or not available at prediction time. (Count)
system.cpu.branchPred.condPredicted           3137750                       # Number of conditional branches predicted (Count)
system.cpu.branchPred.condPredictedTaken      1126150                       # Number of conditional branches predicted as taken (Count)
system.cpu.branchPred.condIncorrect             22738                       # Number of conditional branches incorrect (Count)
system.cpu.branchPred.predTakenBTBMiss           2189                       # Number of branches predicted taken but missed in BTB (Count)
system.cpu.branchPred.NotTakenMispredicted        18905                       # Number branches predicted 'not taken' but turned out to be taken (Count)
system.cpu.branchPred.TakenMispredicted          3833                       # Number branches predicted taken but are actually not taken (Count)
system.cpu.branchPred.BTBLookups              5705809                       # Number of BTB lookups (Count)
system.cpu.branchPred.BTBUpdates                18369                       # Number of BTB updates (Count)
system.cpu.branchPred.BTBHits                 2627676                       # Number of BTB hits (Count)
system.cpu.branchPred.BTBHitRatio            0.460526                       # BTB Hit Ratio (Ratio)
system.cpu.branchPred.BTBMispredicted            2938                       # Number BTB mispredictions. No target found or target wrong (Count)
system.cpu.branchPred.indirectLookups          325537                       # Number of indirect predictor lookups. (Count)
system.cpu.branchPred.indirectHits             322630                       # Number of indirect target hits. (Count)
system.cpu.branchPred.indirectMisses             2907                       # Number of indirect misses. (Count)
system.cpu.branchPred.indirectMispredicted            0                       # Number of mispredicted indirect branches. (Count)
system.cpu.branchPred.btb.lookups::NoBranch            0      0.00%      0.00% # Number of BTB lookups (Count)
system.cpu.branchPred.btb.lookups::Return      1123192     19.69%     19.69% # Number of BTB lookups (Count)
system.cpu.branchPred.btb.lookups::CallDirect      1103699     19.34%     39.03% # Number of BTB lookups (Count)
system.cpu.branchPred.btb.lookups::CallIndirect          654      0.01%     39.04% # Number of BTB lookups (Count)
system.cpu.branchPred.btb.lookups::DirectCond      3137750     54.99%     94.03% # Number of BTB lookups (Count)
system.cpu.branchPred.btb.lookups::DirectUncond        15631      0.27%     94.31% # Number of BTB lookups (Count)
system.cpu.branchPred.btb.lookups::IndirectCond            0      0.00%     94.31% # Number of BTB lookups (Count)
system.cpu.branchPred.btb.lookups::IndirectUncond       324883      5.69%    100.00% # Number of BTB lookups (Count)
system.cpu.branchPred.btb.lookups::total      5705809                       # Number of BTB lookups (Count)
system.cpu.branchPred.btb.misses::NoBranch            0      0.00%      0.00% # Number of BTB misses (Count)
system.cpu.branchPred.btb.misses::Return      1123138     36.49%     36.49% # Number of BTB misses (Count)
system.cpu.branchPred.btb.misses::CallDirect         1204      0.04%     36.53% # Number of BTB misses (Count)
system.cpu.branchPred.btb.misses::CallIndirect          506      0.02%     36.54% # Number of BTB misses (Count)
system.cpu.branchPred.btb.misses::DirectCond      1626817     52.85%     89.39% # Number of BTB misses (Count)
system.cpu.branchPred.btb.misses::DirectUncond         1585      0.05%     89.45% # Number of BTB misses (Count)
system.cpu.branchPred.btb.misses::IndirectCond            0      0.00%     89.45% # Number of BTB misses (Count)
system.cpu.branchPred.btb.misses::IndirectUncond       324883     10.55%    100.00% # Number of BTB misses (Count)
system.cpu.branchPred.btb.misses::total       3078133                       # Number of BTB misses (Count)
system.cpu.branchPred.btb.updates::NoBranch            0      0.00%      0.00% # Number of BTB updates (Count)
system.cpu.branchPred.btb.updates::Return            0      0.00%      0.00% # Number of BTB updates (Count)
system.cpu.branchPred.btb.updates::CallDirect         1624      8.84%      8.84% # Number of BTB updates (Count)
system.cpu.branchPred.btb.updates::CallIndirect            0      0.00%      8.84% # Number of BTB updates (Count)
system.cpu.branchPred.btb.updates::DirectCond        15346     83.54%     92.38% # Number of BTB updates (Count)
system.cpu.branchPred.btb.updates::DirectUncond         1399      7.62%    100.00% # Number of BTB updates (Count)
system.cpu.branchPred.btb.updates::IndirectCond            0      0.00%    100.00% # Number of BTB updates (Count)
system.cpu.branchPred.btb.updates::IndirectUncond            0      0.00%    100.00% # Number of BTB updates (Count)
system.cpu.branchPred.btb.updates::total        18369                       # Number of BTB updates (Count)
system.cpu.branchPred.btb.mispredict::NoBranch            0      0.00%      0.00% # Number of BTB mispredictions. No target found or target wrong. (Count)
system.cpu.branchPred.btb.mispredict::Return            0      0.00%      0.00% # Number of BTB mispredictions. No target found or target wrong. (Count)
system.cpu.branchPred.btb.mispredict::CallDirect         1624      8.84%      8.84% # Number of BTB mispredictions. No target found or target wrong. (Count)
system.cpu.branchPred.btb.mispredict::CallIndirect            0      0.00%      8.84% # Number of BTB mispredictions. No target found or target wrong. (Count)
system.cpu.branchPred.btb.mispredict::DirectCond        15346     83.54%     92.38% # Number of BTB mispredictions. No target found or target wrong. (Count)
system.cpu.branchPred.btb.mispredict::DirectUncond         1399      7.62%    100.00% # Number of BTB mispredictions. No target found or target wrong. (Count)
system.cpu.branchPred.btb.mispredict::IndirectCond            0      0.00%    100.00% # Number of BTB mispredictions. No target found or target wrong. (Count)
system.cpu.branchPred.btb.mispredict::IndirectUncond            0      0.00%    100.00% # Number of BTB mispredictions. No target found or target wrong. (Count)
system.cpu.branchPred.btb.mispredict::total        18369                       # Number of BTB mispredictions. No target found or target wrong. (Count)
system.cpu.branchPred.btb.power_state.pwrStateResidencyTicks::UNDEFINED 189674556061                       # Cumulative time (in ticks) in various power states (Tick)
system.cpu.branchPred.indirectBranchPred.lookups       325537                       # Number of lookups (Count)
system.cpu.branchPred.indirectBranchPred.hits       322630                       # Number of hits of a tag (Count)
system.cpu.branchPred.indirectBranchPred.misses         2907                       # Number of misses (Count)
system.cpu.branchPred.indirectBranchPred.targetRecords          517                       # Number of targets that where recorded/installed in the cache (Count)
system.cpu.branchPred.indirectBranchPred.indirectRecords       326054                       # Number of indirect branches/calls recorded in the indirect hist (Count)
system.cpu.branchPred.indirectBranchPred.speculativeOverflows            0                       # Number of times more than the allowed capacity for speculative branches/calls where in flight and destroy the path history (Count)
system.cpu.branchPred.ras.pushes              1129843                       # Number of times a PC was pushed onto the RAS (Count)
system.cpu.branchPred.ras.pops                1129839                       # Number of times a PC was poped from the RAS (Count)
system.cpu.branchPred.ras.squashes              32137                       # Number of times the stack operation was squashed due to wrong speculation. (Count)
system.cpu.branchPred.ras.used                1097702                       # Number of times the RAS is the provider (Count)
system.cpu.branchPred.ras.correct             1097691                       # Number of times the RAS is the provider and the prediction is correct (Count)
system.cpu.branchPred.ras.incorrect                11                       # Number of times the RAS is the provider and the prediction is wrong (Count)
system.cpu.commit.commitSquashedInsts          461089                       # The number of squashed insts skipped by commit (Count)
system.cpu.commit.commitNonSpecStalls             684                       # The number of times commit has been forced to stall to communicate backwards (Count)
system.cpu.commit.branchMispredicts             21116                       # The number of times a branch was mispredicted (Count)
system.cpu.commit.numCommittedDist::samples    175321594                       # Number of insts commited each cycle (Count)
system.cpu.commit.numCommittedDist::mean     0.292714                       # Number of insts commited each cycle (Count)
system.cpu.commit.numCommittedDist::stdev     1.294323                       # Number of insts commited each cycle (Count)
system.cpu.commit.numCommittedDist::underflows            0      0.00%      0.00% # Number of insts commited each cycle (Count)
system.cpu.commit.numCommittedDist::0       163368121     93.18%     93.18% # Number of insts commited each cycle (Count)
system.cpu.commit.numCommittedDist::1         2326335      1.33%     94.51% # Number of insts commited each cycle (Count)
system.cpu.commit.numCommittedDist::2         1726834      0.98%     95.49% # Number of insts commited each cycle (Count)
system.cpu.commit.numCommittedDist::3         2134583      1.22%     96.71% # Number of insts commited each cycle (Count)
system.cpu.commit.numCommittedDist::4         1043885      0.60%     97.31% # Number of insts commited each cycle (Count)
system.cpu.commit.numCommittedDist::5          377511      0.22%     97.52% # Number of insts commited each cycle (Count)
system.cpu.commit.numCommittedDist::6          673615      0.38%     97.91% # Number of insts commited each cycle (Count)
system.cpu.commit.numCommittedDist::7          335140      0.19%     98.10% # Number of insts commited each cycle (Count)
system.cpu.commit.numCommittedDist::8         3335570      1.90%    100.00% # Number of insts commited each cycle (Count)
system.cpu.commit.numCommittedDist::overflows            0      0.00%    100.00% # Number of insts commited each cycle (Count)
system.cpu.commit.numCommittedDist::min_value            0                       # Number of insts commited each cycle (Count)
system.cpu.commit.numCommittedDist::max_value            8                       # Number of insts commited each cycle (Count)
system.cpu.commit.numCommittedDist::total    175321594                       # Number of insts commited each cycle (Count)
system.cpu.commit.amos                              0                       # Number of atomic instructions committed (Count)
system.cpu.commit.membars                         306                       # Number of memory barriers committed (Count)
system.cpu.commit.functionCalls               1097706                       # Number of function calls committed. (Count)
system.cpu.commit.committedInstType_0::No_OpClass         2726      0.01%      0.01% # Class of committed instruction (Count)
system.cpu.commit.committedInstType_0::IntAlu     37950225     73.95%     73.95% # Class of committed instruction (Count)
system.cpu.commit.committedInstType_0::IntMult        50880      0.10%     74.05% # Class of committed instruction (Count)
system.cpu.commit.committedInstType_0::IntDiv         3750      0.01%     74.06% # Class of committed instruction (Count)
system.cpu.commit.committedInstType_0::FloatAdd       231775      0.45%     74.51% # Class of committed instruction (Count)
system.cpu.commit.committedInstType_0::FloatCmp            0      0.00%     74.51% # Class of committed instruction (Count)
system.cpu.commit.committedInstType_0::FloatCvt          400      0.00%     74.51% # Class of committed instruction (Count)
system.cpu.commit.committedInstType_0::FloatMult            0      0.00%     74.51% # Class of committed instruction (Count)
system.cpu.commit.committedInstType_0::FloatMultAcc            0      0.00%     74.51% # Class of committed instruction (Count)
system.cpu.commit.committedInstType_0::FloatDiv            0      0.00%     74.51% # Class of committed instruction (Count)
system.cpu.commit.committedInstType_0::FloatMisc            0      0.00%     74.51% # Class of committed instruction (Count)
system.cpu.commit.committedInstType_0::FloatSqrt            0      0.00%     74.51% # Class of committed instruction (Count)
system.cpu.commit.committedInstType_0::SimdAdd           16      0.00%     74.51% # Class of committed instruction (Count)
system.cpu.commit.committedInstType_0::SimdAddAcc            0      0.00%     74.51% # Class of committed instruction (Count)
system.cpu.commit.committedInstType_0::SimdAlu       102548      0.20%     74.71% # Class of committed instruction (Count)
system.cpu.commit.committedInstType_0::SimdCmp            0      0.00%     74.71% # Class of committed instruction (Count)
system.cpu.commit.committedInstType_0::SimdCvt          524      0.00%     74.71% # Class of committed instruction (Count)
system.cpu.commit.committedInstType_0::SimdMisc        77442      0.15%     74.87% # Class of committed instruction (Count)
system.cpu.commit.committedInstType_0::SimdMult            0      0.00%     74.87% # Class of committed instruction (Count)
system.cpu.commit.committedInstType_0::SimdMultAcc            0      0.00%     74.87% # Class of committed instruction (Count)
system.cpu.commit.committedInstType_0::SimdMatMultAcc            0      0.00%     74.87% # Class of committed instruction (Count)
system.cpu.commit.committedInstType_0::SimdShift            0      0.00%     74.87% # Class of committed instruction (Count)
system.cpu.commit.committedInstType_0::SimdShiftAcc            0      0.00%     74.87% # Class of committed instruction (Count)
system.cpu.commit.committedInstType_0::SimdDiv            0      0.00%     74.87% # Class of committed instruction (Count)
system.cpu.commit.committedInstType_0::SimdSqrt            0      0.00%     74.87% # Class of committed instruction (Count)
system.cpu.commit.committedInstType_0::SimdFloatAdd        50688      0.10%     74.96% # Class of committed instruction (Count)
system.cpu.commit.committedInstType_0::SimdFloatAlu            0      0.00%     74.96% # Class of committed instruction (Count)
system.cpu.commit.committedInstType_0::SimdFloatCmp            0      0.00%     74.96% # Class of committed instruction (Count)
system.cpu.commit.committedInstType_0::SimdFloatCvt       102528      0.20%     75.16% # Class of committed instruction (Count)
system.cpu.commit.committedInstType_0::SimdFloatDiv        25344      0.05%     75.21% # Class of committed instruction (Count)
system.cpu.commit.committedInstType_0::SimdFloatMisc            0      0.00%     75.21% # Class of committed instruction (Count)
system.cpu.commit.committedInstType_0::SimdFloatMult        25728      0.05%     75.26% # Class of committed instruction (Count)
system.cpu.commit.committedInstType_0::SimdFloatMultAcc            0      0.00%     75.26% # Class of committed instruction (Count)
system.cpu.commit.committedInstType_0::SimdFloatMatMultAcc            0      0.00%     75.26% # Class of committed instruction (Count)
system.cpu.commit.committedInstType_0::SimdFloatSqrt            0      0.00%     75.26% # Class of committed instruction (Count)
system.cpu.commit.committedInstType_0::SimdReduceAdd            0      0.00%     75.26% # Class of committed instruction (Count)
system.cpu.commit.committedInstType_0::SimdReduceAlu            0      0.00%     75.26% # Class of committed instruction (Count)
system.cpu.commit.committedInstType_0::SimdReduceCmp            0      0.00%     75.26% # Class of committed instruction (Count)
system.cpu.commit.committedInstType_0::SimdFloatReduceAdd            0      0.00%     75.26% # Class of committed instruction (Count)
system.cpu.commit.committedInstType_0::SimdFloatReduceCmp            0      0.00%     75.26% # Class of committed instruction (Count)
system.cpu.commit.committedInstType_0::SimdAes            0      0.00%     75.26% # Class of committed instruction (Count)
system.cpu.commit.committedInstType_0::SimdAesMix            0      0.00%     75.26% # Class of committed instruction (Count)
system.cpu.commit.committedInstType_0::SimdSha1Hash            0      0.00%     75.26% # Class of committed instruction (Count)
system.cpu.commit.committedInstType_0::SimdSha1Hash2            0      0.00%     75.26% # Class of committed instruction (Count)
system.cpu.commit.committedInstType_0::SimdSha256Hash            0      0.00%     75.26% # Class of committed instruction (Count)
system.cpu.commit.committedInstType_0::SimdSha256Hash2            0      0.00%     75.26% # Class of committed instruction (Count)
system.cpu.commit.committedInstType_0::SimdShaSigma2            0      0.00%     75.26% # Class of committed instruction (Count)
system.cpu.commit.committedInstType_0::SimdShaSigma3            0      0.00%     75.26% # Class of committed instruction (Count)
system.cpu.commit.committedInstType_0::SimdPredAlu            0      0.00%     75.26% # Class of committed instruction (Count)
system.cpu.commit.committedInstType_0::Matrix            0      0.00%     75.26% # Class of committed instruction (Count)
system.cpu.commit.committedInstType_0::MatrixMov            0      0.00%     75.26% # Class of committed instruction (Count)
system.cpu.commit.committedInstType_0::MatrixOP            0      0.00%     75.26% # Class of committed instruction (Count)
system.cpu.commit.committedInstType_0::MemRead      7930243     15.45%     90.72% # Class of committed instruction (Count)
system.cpu.commit.committedInstType_0::MemWrite      4401235      8.58%     99.29% # Class of committed instruction (Count)
system.cpu.commit.committedInstType_0::FloatMemRead       258539      0.50%     99.80% # Class of committed instruction (Count)
system.cpu.commit.committedInstType_0::FloatMemWrite       104486      0.20%    100.00% # Class of committed instruction (Count)
system.cpu.commit.committedInstType_0::IprAccess            0      0.00%    100.00% # Class of committed instruction (Count)
system.cpu.commit.committedInstType_0::InstPrefetch            0      0.00%    100.00% # Class of committed instruction (Count)
system.cpu.commit.committedInstType_0::SimdUnitStrideLoad            0      0.00%    100.00% # Class of committed instruction (Count)
system.cpu.commit.committedInstType_0::SimdUnitStrideStore            0      0.00%    100.00% # Class of committed instruction (Count)
system.cpu.commit.committedInstType_0::SimdUnitStrideMaskLoad            0      0.00%    100.00% # Class of committed instruction (Count)
system.cpu.commit.committedInstType_0::SimdUnitStrideMaskStore            0      0.00%    100.00% # Class of committed instruction (Count)
system.cpu.commit.committedInstType_0::SimdStridedLoad            0      0.00%    100.00% # Class of committed instruction (Count)
system.cpu.commit.committedInstType_0::SimdStridedStore            0      0.00%    100.00% # Class of committed instruction (Count)
system.cpu.commit.committedInstType_0::SimdIndexedLoad            0      0.00%    100.00% # Class of committed instruction (Count)
system.cpu.commit.committedInstType_0::SimdIndexedStore            0      0.00%    100.00% # Class of committed instruction (Count)
system.cpu.commit.committedInstType_0::SimdWholeRegisterLoad            0      0.00%    100.00% # Class of committed instruction (Count)
system.cpu.commit.committedInstType_0::SimdWholeRegisterStore            0      0.00%    100.00% # Class of committed instruction (Count)
system.cpu.commit.committedInstType_0::SimdUnitStrideFaultOnlyFirstLoad            0      0.00%    100.00% # Class of committed instruction (Count)
system.cpu.commit.committedInstType_0::SimdUnitStrideSegmentedLoad            0      0.00%    100.00% # Class of committed instruction (Count)
system.cpu.commit.committedInstType_0::SimdUnitStrideSegmentedStore            0      0.00%    100.00% # Class of committed instruction (Count)
system.cpu.commit.committedInstType_0::SimdExt            0      0.00%    100.00% # Class of committed instruction (Count)
system.cpu.commit.committedInstType_0::SimdFloatExt            0      0.00%    100.00% # Class of committed instruction (Count)
system.cpu.commit.committedInstType_0::SimdConfig            0      0.00%    100.00% # Class of committed instruction (Count)
system.cpu.commit.committedInstType_0::total     51319077                       # Class of committed instruction (Count)
system.cpu.commit.commitEligibleSamples       3335570                       # number cycles where commit BW limit reached (Cycle)
system.cpu.commitStats0.numInsts             26422505                       # Number of instructions committed (thread level) (Count)
system.cpu.commitStats0.numOps               51319077                       # Number of ops (including micro ops) committed (thread level) (Count)
system.cpu.commitStats0.numInstsNotNOP       26422505                       # Number of instructions committed excluding NOPs or prefetches (Count)
system.cpu.commitStats0.numOpsNotNOP         51319077                       # Number of Ops (including micro ops) Simulated (Count)
system.cpu.commitStats0.cpi                 22.934578                       # CPI: cycles per instruction (thread level) ((Cycle/Count))
system.cpu.commitStats0.ipc                  0.043602                       # IPC: instructions per cycle (thread level) ((Count/Cycle))
system.cpu.commitStats0.numMemRefs           12694503                       # Number of memory references committed (Count)
system.cpu.commitStats0.numFpInsts             980137                       # Number of float instructions (Count)
system.cpu.commitStats0.numIntInsts          50767814                       # Number of integer instructions (Count)
system.cpu.commitStats0.numLoadInsts          8188782                       # Number of load instructions (Count)
system.cpu.commitStats0.numStoreInsts         4505721                       # Number of store instructions (Count)
system.cpu.commitStats0.numVecInsts                 0                       # Number of vector instructions (Count)
system.cpu.commitStats0.committedInstType::No_OpClass         2726      0.01%      0.01% # Class of committed instruction. (Count)
system.cpu.commitStats0.committedInstType::IntAlu     37950225     73.95%     73.95% # Class of committed instruction. (Count)
system.cpu.commitStats0.committedInstType::IntMult        50880      0.10%     74.05% # Class of committed instruction. (Count)
system.cpu.commitStats0.committedInstType::IntDiv         3750      0.01%     74.06% # Class of committed instruction. (Count)
system.cpu.commitStats0.committedInstType::FloatAdd       231775      0.45%     74.51% # Class of committed instruction. (Count)
system.cpu.commitStats0.committedInstType::FloatCmp            0      0.00%     74.51% # Class of committed instruction. (Count)
system.cpu.commitStats0.committedInstType::FloatCvt          400      0.00%     74.51% # Class of committed instruction. (Count)
system.cpu.commitStats0.committedInstType::FloatMult            0      0.00%     74.51% # Class of committed instruction. (Count)
system.cpu.commitStats0.committedInstType::FloatMultAcc            0      0.00%     74.51% # Class of committed instruction. (Count)
system.cpu.commitStats0.committedInstType::FloatDiv            0      0.00%     74.51% # Class of committed instruction. (Count)
system.cpu.commitStats0.committedInstType::FloatMisc            0      0.00%     74.51% # Class of committed instruction. (Count)
system.cpu.commitStats0.committedInstType::FloatSqrt            0      0.00%     74.51% # Class of committed instruction. (Count)
system.cpu.commitStats0.committedInstType::SimdAdd           16      0.00%     74.51% # Class of committed instruction. (Count)
system.cpu.commitStats0.committedInstType::SimdAddAcc            0      0.00%     74.51% # Class of committed instruction. (Count)
system.cpu.commitStats0.committedInstType::SimdAlu       102548      0.20%     74.71% # Class of committed instruction. (Count)
system.cpu.commitStats0.committedInstType::SimdCmp            0      0.00%     74.71% # Class of committed instruction. (Count)
system.cpu.commitStats0.committedInstType::SimdCvt          524      0.00%     74.71% # Class of committed instruction. (Count)
system.cpu.commitStats0.committedInstType::SimdMisc        77442      0.15%     74.87% # Class of committed instruction. (Count)
system.cpu.commitStats0.committedInstType::SimdMult            0      0.00%     74.87% # Class of committed instruction. (Count)
system.cpu.commitStats0.committedInstType::SimdMultAcc            0      0.00%     74.87% # Class of committed instruction. (Count)
system.cpu.commitStats0.committedInstType::SimdMatMultAcc            0      0.00%     74.87% # Class of committed instruction. (Count)
system.cpu.commitStats0.committedInstType::SimdShift            0      0.00%     74.87% # Class of committed instruction. (Count)
system.cpu.commitStats0.committedInstType::SimdShiftAcc            0      0.00%     74.87% # Class of committed instruction. (Count)
system.cpu.commitStats0.committedInstType::SimdDiv            0      0.00%     74.87% # Class of committed instruction. (Count)
system.cpu.commitStats0.committedInstType::SimdSqrt            0      0.00%     74.87% # Class of committed instruction. (Count)
system.cpu.commitStats0.committedInstType::SimdFloatAdd        50688      0.10%     74.96% # Class of committed instruction. (Count)
system.cpu.commitStats0.committedInstType::SimdFloatAlu            0      0.00%     74.96% # Class of committed instruction. (Count)
system.cpu.commitStats0.committedInstType::SimdFloatCmp            0      0.00%     74.96% # Class of committed instruction. (Count)
system.cpu.commitStats0.committedInstType::SimdFloatCvt       102528      0.20%     75.16% # Class of committed instruction. (Count)
system.cpu.commitStats0.committedInstType::SimdFloatDiv        25344      0.05%     75.21% # Class of committed instruction. (Count)
system.cpu.commitStats0.committedInstType::SimdFloatMisc            0      0.00%     75.21% # Class of committed instruction. (Count)
system.cpu.commitStats0.committedInstType::SimdFloatMult        25728      0.05%     75.26% # Class of committed instruction. (Count)
system.cpu.commitStats0.committedInstType::SimdFloatMultAcc            0      0.00%     75.26% # Class of committed instruction. (Count)
system.cpu.commitStats0.committedInstType::SimdFloatMatMultAcc            0      0.00%     75.26% # Class of committed instruction. (Count)
system.cpu.commitStats0.committedInstType::SimdFloatSqrt            0      0.00%     75.26% # Class of committed instruction. (Count)
system.cpu.commitStats0.committedInstType::SimdReduceAdd            0      0.00%     75.26% # Class of committed instruction. (Count)
system.cpu.commitStats0.committedInstType::SimdReduceAlu            0      0.00%     75.26% # Class of committed instruction. (Count)
system.cpu.commitStats0.committedInstType::SimdReduceCmp            0      0.00%     75.26% # Class of committed instruction. (Count)
system.cpu.commitStats0.committedInstType::SimdFloatReduceAdd            0      0.00%     75.26% # Class of committed instruction. (Count)
system.cpu.commitStats0.committedInstType::SimdFloatReduceCmp            0      0.00%     75.26% # Class of committed instruction. (Count)
system.cpu.commitStats0.committedInstType::SimdAes            0      0.00%     75.26% # Class of committed instruction. (Count)
system.cpu.commitStats0.committedInstType::SimdAesMix            0      0.00%     75.26% # Class of committed instruction. (Count)
system.cpu.commitStats0.committedInstType::SimdSha1Hash            0      0.00%     75.26% # Class of committed instruction. (Count)
system.cpu.commitStats0.committedInstType::SimdSha1Hash2            0      0.00%     75.26% # Class of committed instruction. (Count)
system.cpu.commitStats0.committedInstType::SimdSha256Hash            0      0.00%     75.26% # Class of committed instruction. (Count)
system.cpu.commitStats0.committedInstType::SimdSha256Hash2            0      0.00%     75.26% # Class of committed instruction. (Count)
system.cpu.commitStats0.committedInstType::SimdShaSigma2            0      0.00%     75.26% # Class of committed instruction. (Count)
system.cpu.commitStats0.committedInstType::SimdShaSigma3            0      0.00%     75.26% # Class of committed instruction. (Count)
system.cpu.commitStats0.committedInstType::SimdPredAlu            0      0.00%     75.26% # Class of committed instruction. (Count)
system.cpu.commitStats0.committedInstType::Matrix            0      0.00%     75.26% # Class of committed instruction. (Count)
system.cpu.commitStats0.committedInstType::MatrixMov            0      0.00%     75.26% # Class of committed instruction. (Count)
system.cpu.commitStats0.committedInstType::MatrixOP            0      0.00%     75.26% # Class of committed instruction. (Count)
system.cpu.commitStats0.committedInstType::MemRead      7930243     15.45%     90.72% # Class of committed instruction. (Count)
system.cpu.commitStats0.committedInstType::MemWrite      4401235      8.58%     99.29% # Class of committed instruction. (Count)
system.cpu.commitStats0.committedInstType::FloatMemRead       258539      0.50%     99.80% # Class of committed instruction. (Count)
system.cpu.commitStats0.committedInstType::FloatMemWrite       104486      0.20%    100.00% # Class of committed instruction. (Count)
system.cpu.commitStats0.committedInstType::IprAccess            0      0.00%    100.00% # Class of committed instruction. (Count)
system.cpu.commitStats0.committedInstType::InstPrefetch            0      0.00%    100.00% # Class of committed instruction. (Count)
system.cpu.commitStats0.committedInstType::SimdUnitStrideLoad            0      0.00%    100.00% # Class of committed instruction. (Count)
system.cpu.commitStats0.committedInstType::SimdUnitStrideStore            0      0.00%    100.00% # Class of committed instruction. (Count)
system.cpu.commitStats0.committedInstType::SimdUnitStrideMaskLoad            0      0.00%    100.00% # Class of committed instruction. (Count)
system.cpu.commitStats0.committedInstType::SimdUnitStrideMaskStore            0      0.00%    100.00% # Class of committed instruction. (Count)
system.cpu.commitStats0.committedInstType::SimdStridedLoad            0      0.00%    100.00% # Class of committed instruction. (Count)
system.cpu.commitStats0.committedInstType::SimdStridedStore            0      0.00%    100.00% # Class of committed instruction. (Count)
system.cpu.commitStats0.committedInstType::SimdIndexedLoad            0      0.00%    100.00% # Class of committed instruction. (Count)
system.cpu.commitStats0.committedInstType::SimdIndexedStore            0      0.00%    100.00% # Class of committed instruction. (Count)
system.cpu.commitStats0.committedInstType::SimdWholeRegisterLoad            0      0.00%    100.00% # Class of committed instruction. (Count)
system.cpu.commitStats0.committedInstType::SimdWholeRegisterStore            0      0.00%    100.00% # Class of committed instruction. (Count)
system.cpu.commitStats0.committedInstType::SimdUnitStrideFaultOnlyFirstLoad            0      0.00%    100.00% # Class of committed instruction. (Count)
system.cpu.commitStats0.committedInstType::SimdUnitStrideSegmentedLoad            0      0.00%    100.00% # Class of committed instruction. (Count)
system.cpu.commitStats0.committedInstType::SimdUnitStrideSegmentedStore            0      0.00%    100.00% # Class of committed instruction. (Count)
system.cpu.commitStats0.committedInstType::SimdExt            0      0.00%    100.00% # Class of committed instruction. (Count)
system.cpu.commitStats0.committedInstType::SimdFloatExt            0      0.00%    100.00% # Class of committed instruction. (Count)
system.cpu.commitStats0.committedInstType::SimdConfig            0      0.00%    100.00% # Class of committed instruction. (Count)
system.cpu.commitStats0.committedInstType::total     51319077                       # Class of committed instruction. (Count)
system.cpu.commitStats0.committedControl::IsControl      5578756                       # Class of control type instructions committed (Count)
system.cpu.commitStats0.committedControl::IsDirectControl      4159080                       # Class of control type instructions committed (Count)
system.cpu.commitStats0.committedControl::IsIndirectControl      1419676                       # Class of control type instructions committed (Count)
system.cpu.commitStats0.committedControl::IsCondControl      3052564                       # Class of control type instructions committed (Count)
system.cpu.commitStats0.committedControl::IsUncondControl      2526192                       # Class of control type instructions committed (Count)
system.cpu.commitStats0.committedControl::IsCall      1097706                       # Class of control type instructions committed (Count)
system.cpu.commitStats0.committedControl::IsReturn      1097702                       # Class of control type instructions committed (Count)
system.cpu.dcache.demandHits::cpu.data        7981665                       # number of demand (read+write) hits (Count)
system.cpu.dcache.demandHits::total           7981665                       # number of demand (read+write) hits (Count)
system.cpu.dcache.overallHits::cpu.data       7981665                       # number of overall hits (Count)
system.cpu.dcache.overallHits::total          7981665                       # number of overall hits (Count)
system.cpu.dcache.demandMisses::cpu.data        34319                       # number of demand (read+write) misses (Count)
system.cpu.dcache.demandMisses::total           34319                       # number of demand (read+write) misses (Count)
system.cpu.dcache.overallMisses::cpu.data        34319                       # number of overall misses (Count)
system.cpu.dcache.overallMisses::total          34319                       # number of overall misses (Count)
system.cpu.dcache.demandMissLatency::cpu.data  10920358388                       # number of demand (read+write) miss ticks (Tick)
system.cpu.dcache.demandMissLatency::total  10920358388                       # number of demand (read+write) miss ticks (Tick)
system.cpu.dcache.overallMissLatency::cpu.data  10920358388                       # number of overall miss ticks (Tick)
system.cpu.dcache.overallMissLatency::total  10920358388                       # number of overall miss ticks (Tick)
system.cpu.dcache.demandAccesses::cpu.data      8015984                       # number of demand (read+write) accesses (Count)
system.cpu.dcache.demandAccesses::total       8015984                       # number of demand (read+write) accesses (Count)
system.cpu.dcache.overallAccesses::cpu.data      8015984                       # number of overall (read+write) accesses (Count)
system.cpu.dcache.overallAccesses::total      8015984                       # number of overall (read+write) accesses (Count)
system.cpu.dcache.demandMissRate::cpu.data     0.004281                       # miss rate for demand accesses (Ratio)
system.cpu.dcache.demandMissRate::total      0.004281                       # miss rate for demand accesses (Ratio)
system.cpu.dcache.overallMissRate::cpu.data     0.004281                       # miss rate for overall accesses (Ratio)
system.cpu.dcache.overallMissRate::total     0.004281                       # miss rate for overall accesses (Ratio)
system.cpu.dcache.demandAvgMissLatency::cpu.data 318201.532329                       # average overall miss latency in ticks ((Tick/Count))
system.cpu.dcache.demandAvgMissLatency::total 318201.532329                       # average overall miss latency in ticks ((Tick/Count))
system.cpu.dcache.overallAvgMissLatency::cpu.data 318201.532329                       # average overall miss latency ((Tick/Count))
system.cpu.dcache.overallAvgMissLatency::total 318201.532329                       # average overall miss latency ((Tick/Count))
system.cpu.dcache.blockedCycles::no_mshrs       732934                       # number of cycles access was blocked (Cycle)
system.cpu.dcache.blockedCycles::no_targets        21509                       # number of cycles access was blocked (Cycle)
system.cpu.dcache.blockedCauses::no_mshrs          767                       # number of times access was blocked (Count)
system.cpu.dcache.blockedCauses::no_targets           39                       # number of times access was blocked (Count)
system.cpu.dcache.avgBlocked::no_mshrs     955.585398                       # average number of cycles each access was blocked ((Cycle/Count))
system.cpu.dcache.avgBlocked::no_targets   551.512821                       # average number of cycles each access was blocked ((Cycle/Count))
system.cpu.dcache.writebacks::writebacks        11832                       # number of writebacks (Count)
system.cpu.dcache.writebacks::total             11832                       # number of writebacks (Count)
system.cpu.dcache.demandMshrHits::cpu.data        17521                       # number of demand (read+write) MSHR hits (Count)
system.cpu.dcache.demandMshrHits::total         17521                       # number of demand (read+write) MSHR hits (Count)
system.cpu.dcache.overallMshrHits::cpu.data        17521                       # number of overall MSHR hits (Count)
[...]
system.l2.ReadSharedReq.accesses::cpu.data         8928                       # number of ReadSharedReq accesses(hits+misses) (Count)
system.l2.ReadSharedReq.accesses::total          8928                       # number of ReadSharedReq accesses(hits+misses) (Count)
system.l2.ReadSharedReq.missRate::cpu.data     0.388105                       # miss rate for ReadSharedReq accesses (Ratio)
system.l2.ReadSharedReq.missRate::total      0.388105                       # miss rate for ReadSharedReq accesses (Ratio)
system.l2.ReadSharedReq.avgMissLatency::cpu.data 672591.382395                       # average ReadSharedReq miss latency ((Tick/Count))
system.l2.ReadSharedReq.avgMissLatency::total 672591.382395                       # average ReadSharedReq miss latency ((Tick/Count))
system.l2.ReadSharedReq.mshrMisses::cpu.data         3465                       # number of ReadSharedReq MSHR misses (Count)
system.l2.ReadSharedReq.mshrMisses::total         3465                       # number of ReadSharedReq MSHR misses (Count)
system.l2.ReadSharedReq.mshrMissLatency::cpu.data   2308293250                       # number of ReadSharedReq MSHR miss ticks (Tick)
system.l2.ReadSharedReq.mshrMissLatency::total   2308293250                       # number of ReadSharedReq MSHR miss ticks (Tick)
system.l2.ReadSharedReq.mshrMissRate::cpu.data     0.388105                       # mshr miss rate for ReadSharedReq accesses (Ratio)
system.l2.ReadSharedReq.mshrMissRate::total     0.388105                       # mshr miss rate for ReadSharedReq accesses (Ratio)
system.l2.ReadSharedReq.avgMshrMissLatency::cpu.data 666174.098124                       # average ReadSharedReq mshr miss latency ((Tick/Count))
system.l2.ReadSharedReq.avgMshrMissLatency::total 666174.098124                       # average ReadSharedReq mshr miss latency ((Tick/Count))
system.l2.UpgradeReq.hits::cpu.data                 2                       # number of UpgradeReq hits (Count)
system.l2.UpgradeReq.hits::total                    2                       # number of UpgradeReq hits (Count)
system.l2.UpgradeReq.accesses::cpu.data             2                       # number of UpgradeReq accesses(hits+misses) (Count)
system.l2.UpgradeReq.accesses::total                2                       # number of UpgradeReq accesses(hits+misses) (Count)
system.l2.WriteReq.mshrUncacheable::cpu.data       320650                       # number of WriteReq MSHR uncacheable (Count)
system.l2.WriteReq.mshrUncacheable::total       320650                       # number of WriteReq MSHR uncacheable (Count)
system.l2.WritebackClean.hits::writebacks         2354                       # number of WritebackClean hits (Count)
system.l2.WritebackClean.hits::total             2354                       # number of WritebackClean hits (Count)
system.l2.WritebackClean.accesses::writebacks         2354                       # number of WritebackClean accesses(hits+misses) (Count)
system.l2.WritebackClean.accesses::total         2354                       # number of WritebackClean accesses(hits+misses) (Count)
system.l2.WritebackDirty.hits::writebacks        11832                       # number of WritebackDirty hits (Count)
system.l2.WritebackDirty.hits::total            11832                       # number of WritebackDirty hits (Count)
system.l2.WritebackDirty.accesses::writebacks        11832                       # number of WritebackDirty accesses(hits+misses) (Count)
system.l2.WritebackDirty.accesses::total        11832                       # number of WritebackDirty accesses(hits+misses) (Count)
system.l2.power_state.pwrStateResidencyTicks::UNDEFINED 189674556061                       # Cumulative time (in ticks) in various power states (Tick)
system.l2.tags.tagsInUse                  8435.334454                       # Average ticks per tags in use ((Tick/Count))
system.l2.tags.totalRefs                        38301                       # Total number of references to valid blocks. (Count)
system.l2.tags.sampledRefs                       9965                       # Sample count of references to valid blocks. (Count)
system.l2.tags.avgRefs                       3.843552                       # Average number of references to valid blocks. ((Count/Count))
system.l2.tags.warmupTick                      430000                       # The tick when the warmup percentage was hit. (Tick)
system.l2.tags.occupancies::cpu.inst      1841.473986                       # Average occupied blocks per tick, per requestor ((Count/Tick))
system.l2.tags.occupancies::cpu.data      6593.860468                       # Average occupied blocks per tick, per requestor ((Count/Tick))
system.l2.tags.avgOccs::cpu.inst             0.056197                       # Average percentage of cache occupancy ((Ratio/Tick))
system.l2.tags.avgOccs::cpu.data             0.201229                       # Average percentage of cache occupancy ((Ratio/Tick))
system.l2.tags.avgOccs::total                0.257426                       # Average percentage of cache occupancy ((Ratio/Tick))
system.l2.tags.occupanciesTaskId::1024           9964                       # Occupied blocks per task id (Count)
system.l2.tags.ageTaskId_1024::0                   31                       # Occupied blocks per task id, per block age (Count)
system.l2.tags.ageTaskId_1024::1                   80                       # Occupied blocks per task id, per block age (Count)
system.l2.tags.ageTaskId_1024::4                 9853                       # Occupied blocks per task id, per block age (Count)
system.l2.tags.ratioOccsTaskId::1024         0.304077                       # Ratio of occupied blocks and all blocks, per task id (Ratio)
system.l2.tags.tagAccesses                     316389                       # Number of tag accesses (Count)
system.l2.tags.dataAccesses                    316389                       # Number of data accesses (Count)
system.l2.tags.power_state.pwrStateResidencyTicks::UNDEFINED 189674556061                       # Cumulative time (in ticks) in various power states (Tick)
system.mem_ctrls.bytesRead::cpu.inst           128064                       # Number of bytes read from this memory (Byte)
system.mem_ctrls.bytesRead::cpu.data           509696                       # Number of bytes read from this memory (Byte)
system.mem_ctrls.bytesRead::total              637760                       # Number of bytes read from this memory (Byte)
system.mem_ctrls.bytesInstRead::cpu.inst       128064                       # Number of instructions bytes read from this memory (Byte)
system.mem_ctrls.bytesInstRead::total          128064                       # Number of instructions bytes read from this memory (Byte)
system.mem_ctrls.bytesWritten::cpu.data        320650                       # Number of bytes written to this memory (Byte)
system.mem_ctrls.bytesWritten::total           320650                       # Number of bytes written to this memory (Byte)
system.mem_ctrls.numReads::cpu.inst              2001                       # Number of read requests responded to by this memory (Count)
system.mem_ctrls.numReads::cpu.data              7964                       # Number of read requests responded to by this memory (Count)
system.mem_ctrls.numReads::total                 9965                       # Number of read requests responded to by this memory (Count)
system.mem_ctrls.numWrites::cpu.data           320650                       # Number of write requests responded to by this memory (Count)
system.mem_ctrls.numWrites::total              320650                       # Number of write requests responded to by this memory (Count)
system.mem_ctrls.bwRead::cpu.inst              675178                       # Total read bandwidth from this memory ((Byte/Second))
system.mem_ctrls.bwRead::cpu.data             2687213                       # Total read bandwidth from this memory ((Byte/Second))
system.mem_ctrls.bwRead::total                3362391                       # Total read bandwidth from this memory ((Byte/Second))
system.mem_ctrls.bwInstRead::cpu.inst          675178                       # Instruction read bandwidth from this memory ((Byte/Second))
system.mem_ctrls.bwInstRead::total             675178                       # Instruction read bandwidth from this memory ((Byte/Second))
system.mem_ctrls.bwWrite::cpu.data            1690527                       # Write bandwidth from this memory ((Byte/Second))
system.mem_ctrls.bwWrite::total               1690527                       # Write bandwidth from this memory ((Byte/Second))
system.mem_ctrls.bwTotal::cpu.inst             675178                       # Total bandwidth to/from this memory ((Byte/Second))
system.mem_ctrls.bwTotal::cpu.data            4377741                       # Total bandwidth to/from this memory ((Byte/Second))
system.mem_ctrls.bwTotal::total               5052918                       # Total bandwidth to/from this memory ((Byte/Second))
system.mem_ctrls.power_state.pwrStateResidencyTicks::UNDEFINED 189674556061                       # Cumulative time (in ticks) in various power states (Tick)
system.membus.transDist::ReadResp                5466                       # Transaction distribution (Count)
system.membus.transDist::WriteReq              320650                       # Transaction distribution (Count)
system.membus.transDist::WriteResp             320650                       # Transaction distribution (Count)
system.membus.transDist::CleanEvict                 1                       # Transaction distribution (Count)
system.membus.transDist::ReadExReq               4499                       # Transaction distribution (Count)
system.membus.transDist::ReadExResp              4499                       # Transaction distribution (Count)
system.membus.transDist::ReadSharedReq           5466                       # Transaction distribution (Count)
system.membus.pktCount_system.l2.mem_side_port::system.mem_ctrls.port       661231                       # Packet count per connected requestor and responder (Count)
system.membus.pktCount_system.l2.mem_side_port::total       661231                       # Packet count per connected requestor and responder (Count)
system.membus.pktCount::total                  661231                       # Packet count per connected requestor and responder (Count)
system.membus.pktSize_system.l2.mem_side_port::system.mem_ctrls.port       958410                       # Cumulative packet size per connected requestor and responder (Byte)
system.membus.pktSize_system.l2.mem_side_port::total       958410                       # Cumulative packet size per connected requestor and responder (Byte)
system.membus.pktSize::total                   958410                       # Cumulative packet size per connected requestor and responder (Byte)
system.membus.snoops                                0                       # Total snoops (Count)
system.membus.snoopTraffic                          0                       # Total snoop traffic (Byte)
system.membus.snoopFanout::samples             651112                       # Request fanout histogram (Count)
system.membus.snoopFanout::mean                     0                       # Request fanout histogram (Count)
system.membus.snoopFanout::stdev                    0                       # Request fanout histogram (Count)
system.membus.snoopFanout::underflows               0      0.00%      0.00% # Request fanout histogram (Count)
system.membus.snoopFanout::0                   651112    100.00%    100.00% # Request fanout histogram (Count)
system.membus.snoopFanout::1                        0      0.00%    100.00% # Request fanout histogram (Count)
system.membus.snoopFanout::overflows                0      0.00%    100.00% # Request fanout histogram (Count)
system.membus.snoopFanout::min_value                0                       # Request fanout histogram (Count)
system.membus.snoopFanout::max_value                0                       # Request fanout histogram (Count)
system.membus.snoopFanout::total               651112                       # Request fanout histogram (Count)
system.membus.power_state.pwrStateResidencyTicks::UNDEFINED 189674556061                       # Cumulative time (in ticks) in various power states (Tick)
system.membus.reqLayer2.occupancy          2934328152                       # Layer occupancy (ticks) (Tick)
system.membus.reqLayer2.utilization               0.0                       # Layer utilization (Ratio)
system.membus.respLayer1.occupancy         1179178209                       # Layer occupancy (ticks) (Tick)
system.membus.respLayer1.utilization              0.0                       # Layer utilization (Ratio)
system.membus.snoop_filter.totRequests           9971                       # Total number of requests made to the snoop filter. (Count)
system.membus.snoop_filter.hitSingleRequests            2                       # Number of requests hitting in the snoop filter with a single holder of the requested data. (Count)
system.membus.snoop_filter.hitMultiRequests            0                       # Number of requests hitting in the snoop filter with multiple (>1) holders of the requested data. (Count)
system.membus.snoop_filter.totSnoops                0                       # Total number of snoops made to the snoop filter. (Count)
system.membus.snoop_filter.hitSingleSnoops            0                       # Number of snoops hitting in the snoop filter with a single holder of the requested data. (Count)
system.membus.snoop_filter.hitMultiSnoops            0                       # Number of snoops hitting in the snoop filter with multiple (>1) holders of the requested data. (Count)
system.tol2bus.transDist::ReadResp              11800                       # Transaction distribution (Count)
system.tol2bus.transDist::WriteReq             320650                       # Transaction distribution (Count)
system.tol2bus.transDist::WriteResp            320650                       # Transaction distribution (Count)
system.tol2bus.transDist::WritebackDirty        11832                       # Transaction distribution (Count)
system.tol2bus.transDist::WritebackClean         2358                       # Transaction distribution (Count)
system.tol2bus.transDist::CleanEvict             4453                       # Transaction distribution (Count)
system.tol2bus.transDist::UpgradeReq                2                       # Transaction distribution (Count)
system.tol2bus.transDist::UpgradeResp               2                       # Transaction distribution (Count)
system.tol2bus.transDist::ReadExReq              7868                       # Transaction distribution (Count)
system.tol2bus.transDist::ReadExResp             7868                       # Transaction distribution (Count)
system.tol2bus.transDist::ReadCleanReq           2873                       # Transaction distribution (Count)
system.tol2bus.transDist::ReadSharedReq          8928                       # Transaction distribution (Count)
system.tol2bus.pktCount_system.cpu.icache.mem_side_port::system.l2.cpu_side_port         8099                       # Packet count per connected requestor and responder (Count)
system.tol2bus.pktCount_system.cpu.dcache.mem_side_port::system.l2.cpu_side_port       691180                       # Packet count per connected requestor and responder (Count)
system.tol2bus.pktCount::total                 699279                       # Packet count per connected requestor and responder (Count)
system.tol2bus.pktSize_system.cpu.icache.mem_side_port::system.l2.cpu_side_port       334464                       # Cumulative packet size per connected requestor and responder (Byte)
system.tol2bus.pktSize_system.cpu.dcache.mem_side_port::system.l2.cpu_side_port      2152842                       # Cumulative packet size per connected requestor and responder (Byte)
system.tol2bus.pktSize::total                 2487306                       # Cumulative packet size per connected requestor and responder (Byte)
system.tol2bus.snoops                               5                       # Total snoops (Count)
system.tol2bus.snoopTraffic                       256                       # Total snoop traffic (Byte)
system.tol2bus.snoopFanout::samples            340322                       # Request fanout histogram (Count)
system.tol2bus.snoopFanout::mean             0.000041                       # Request fanout histogram (Count)
system.tol2bus.snoopFanout::stdev            0.006414                       # Request fanout histogram (Count)
system.tol2bus.snoopFanout::underflows              0      0.00%      0.00% # Request fanout histogram (Count)
system.tol2bus.snoopFanout::0                  340308    100.00%    100.00% # Request fanout histogram (Count)
system.tol2bus.snoopFanout::1                      14      0.00%    100.00% # Request fanout histogram (Count)
system.tol2bus.snoopFanout::2                       0      0.00%    100.00% # Request fanout histogram (Count)
system.tol2bus.snoopFanout::3                       0      0.00%    100.00% # Request fanout histogram (Count)
system.tol2bus.snoopFanout::4                       0      0.00%    100.00% # Request fanout histogram (Count)
system.tol2bus.snoopFanout::overflows               0      0.00%    100.00% # Request fanout histogram (Count)
system.tol2bus.snoopFanout::min_value               0                       # Request fanout histogram (Count)
system.tol2bus.snoopFanout::max_value               1                       # Request fanout histogram (Count)
system.tol2bus.snoopFanout::total              340322                       # Request fanout histogram (Count)
system.tol2bus.power_state.pwrStateResidencyTicks::UNDEFINED 189674556061                       # Cumulative time (in ticks) in various power states (Tick)
system.tol2bus.reqLayer0.occupancy          221601809                       # Layer occupancy (ticks) (Tick)
system.tol2bus.reqLayer0.utilization              0.0                       # Layer utilization (Ratio)
system.tol2bus.respLayer0.occupancy           2698992                       # Layer occupancy (ticks) (Tick)
system.tol2bus.respLayer0.utilization             0.0                       # Layer utilization (Ratio)
system.tol2bus.respLayer1.occupancy         116135520                       # Layer occupancy (ticks) (Tick)
system.tol2bus.respLayer1.utilization             0.0                       # Layer utilization (Ratio)
system.tol2bus.snoop_filter.totRequests         38313                       # Total number of requests made to the snoop filter. (Count)
system.tol2bus.snoop_filter.hitSingleRequests        18645                       # Number of requests hitting in the snoop filter with a single holder of the requested data. (Count)
system.tol2bus.snoop_filter.hitMultiRequests           11                       # Number of requests hitting in the snoop filter with multiple (>1) holders of the requested data. (Count)
system.tol2bus.snoop_filter.totSnoops               0                       # Total number of snoops made to the snoop filter. (Count)
system.tol2bus.snoop_filter.hitSingleSnoops            0                       # Number of snoops hitting in the snoop filter with a single holder of the requested data. (Count)
system.tol2bus.snoop_filter.hitMultiSnoops            0                       # Number of snoops hitting in the snoop filter with multiple (>1) holders of the requested data. (Count)
system.voltage_domain.voltage                       1                       # Voltage in Volts (Volt)
system.workload.inst.arm                            0                       # number of arm instructions executed (Count)
system.workload.inst.quiesce                        0                       # number of quiesce instructions executed (Count)

---------- End Simulation Statistics   ----------
