
---------- Begin Simulation Statistics ----------
simSeconds                                   8.365795                       # Number of seconds simulated (Second)
simTicks                                 8365795148764                       # Number of ticks simulated (Tick)
finalTick                                8365795148764                       # Number of ticks from beginning of simulation (restored from checkpoints and never reset) (Tick)
simFreq                                  1000000000000                       # The number of ticks per simulated second ((Tick/Second))
hostSeconds                                  77193.12                       # Real time elapsed on the host (Second)
hostTickRate                                108374874                       # The number of ticks simulated per host second (ticks/s) ((Tick/Second))
hostMemory                                    9456136                       # Number of bytes of host memory used (Byte)
simInsts                                  17353467514                       # Number of instructions simulated (Count)
simOps                                    28858189950                       # Number of ops (including micro ops) simulated (Count)
hostInstRate                                   224806                       # Simulator instruction rate (inst/s) ((Count/Second))
hostOpRate                                     373844                       # Simulator op (including micro ops) rate (op/s) ((Count/Second))
system.clk_domain.clock                          2500                       # Clock period in ticks (Tick)
system.cpu.numCycles                      26727780029                       # Number of cpu cycles simulated (Cycle)
system.cpu.cpi                               1.540198                       # CPI: cycles per instruction (core level) ((Cycle/Count))
system.cpu.ipc                               0.649267                       # IPC: instructions per cycle (core level) ((Count/Cycle))
system.cpu.numWorkItemsStarted                      0                       # Number of work items this cpu started (Count)
system.cpu.numWorkItemsCompleted                    0                       # Number of work items this cpu completed (Count)
system.cpu.instsAdded                     28915544470                       # Number of instructions added to the IQ (excludes non-spec) (Count)
system.cpu.nonSpecInstsAdded                    48825                       # Number of non-speculative instructions added to the IQ (Count)
system.cpu.instsIssued                    28898432245                       # Number of instructions issued (Count)
system.cpu.squashedInstsIssued                  58173                       # Number of squashed instructions issued (Count)
system.cpu.squashedInstsExamined             57403339                       # Number of squashed instructions iterated over during squash; mainly for profiling (Count)
system.cpu.squashedOperandsExamined          76300779                       # Number of squashed operands that are examined and possibly removed from graph (Count)
system.cpu.squashedNonSpecRemoved               19326                       # Number of squashed non-spec instructions that were removed (Count)
system.cpu.numIssuedDist::samples         26606040634                       # Number of insts issued each cycle (Count)
system.cpu.numIssuedDist::mean               1.086161                       # Number of insts issued each cycle (Count)
system.cpu.numIssuedDist::stdev              1.758402                       # Number of insts issued each cycle (Count)
system.cpu.numIssuedDist::underflows                0      0.00%      0.00% # Number of insts issued each cycle (Count)
system.cpu.numIssuedDist::0               16512325144     62.06%     62.06% # Number of insts issued each cycle (Count)
system.cpu.numIssuedDist::1                2971545008     11.17%     73.23% # Number of insts issued each cycle (Count)
system.cpu.numIssuedDist::2                2101513285      7.90%     81.13% # Number of insts issued each cycle (Count)
system.cpu.numIssuedDist::3                1685739688      6.34%     87.47% # Number of insts issued each cycle (Count)
system.cpu.numIssuedDist::4                1424782901      5.36%     92.82% # Number of insts issued each cycle (Count)
system.cpu.numIssuedDist::5                 916170530      3.44%     96.26% # Number of insts issued each cycle (Count)
system.cpu.numIssuedDist::6                 632865045      2.38%     98.64% # Number of insts issued each cycle (Count)
system.cpu.numIssuedDist::7                 299325185      1.13%     99.77% # Number of insts issued each cycle (Count)
system.cpu.numIssuedDist::8                  61773848      0.23%    100.00% # Number of insts issued each cycle (Count)
system.cpu.numIssuedDist::overflows                 0      0.00%    100.00% # Number of insts issued each cycle (Count)
system.cpu.numIssuedDist::min_value                 0                       # Number of insts issued each cycle (Count)
system.cpu.numIssuedDist::max_value                 8                       # Number of insts issued each cycle (Count)
system.cpu.numIssuedDist::total           26606040634                       # Number of insts issued each cycle (Count)
system.cpu.statFuBusy::No_OpClass                   0      0.00%      0.00% # attempts to use FU when none available (Count)
system.cpu.statFuBusy::IntAlu                 8640690      4.32%      4.32% # attempts to use FU when none available (Count)
system.cpu.statFuBusy::IntMult                      0      0.00%      4.32% # attempts to use FU when none available (Count)
system.cpu.statFuBusy::IntDiv                       0      0.00%      4.32% # attempts to use FU when none available (Count)
system.cpu.statFuBusy::FloatAdd                     0      0.00%      4.32% # attempts to use FU when none available (Count)
system.cpu.statFuBusy::FloatCmp                     0      0.00%      4.32% # attempts to use FU when none available (Count)
system.cpu.statFuBusy::FloatCvt                     0      0.00%      4.32% # attempts to use FU when none available (Count)
system.cpu.statFuBusy::FloatMult                    0      0.00%      4.32% # attempts to use FU when none available (Count)
system.cpu.statFuBusy::FloatMultAcc                 0      0.00%      4.32% # attempts to use FU when none available (Count)
system.cpu.statFuBusy::FloatDiv                     0      0.00%      4.32% # attempts to use FU when none available (Count)
system.cpu.statFuBusy::FloatMisc                    0      0.00%      4.32% # attempts to use FU when none available (Count)
system.cpu.statFuBusy::FloatSqrt                    0      0.00%      4.32% # attempts to use FU when none available (Count)
system.cpu.statFuBusy::SimdAdd                      0      0.00%      4.32% # attempts to use FU when none available (Count)
system.cpu.statFuBusy::SimdAddAcc                   0      0.00%      4.32% # attempts to use FU when none available (Count)
system.cpu.statFuBusy::SimdAlu                     72      0.00%      4.32% # attempts to use FU when none available (Count)
system.cpu.statFuBusy::SimdCmp                      0      0.00%      4.32% # attempts to use FU when none available (Count)
system.cpu.statFuBusy::SimdCvt                      7      0.00%      4.32% # attempts to use FU when none available (Count)
system.cpu.statFuBusy::SimdMisc                     1      0.00%      4.32% # attempts to use FU when none available (Count)
system.cpu.statFuBusy::SimdMult                     0      0.00%      4.32% # attempts to use FU when none available (Count)
system.cpu.statFuBusy::SimdMultAcc                  0      0.00%      4.32% # attempts to use FU when none available (Count)
system.cpu.statFuBusy::SimdMatMultAcc               0      0.00%      4.32% # attempts to use FU when none available (Count)
system.cpu.statFuBusy::SimdShift                    0      0.00%      4.32% # attempts to use FU when none available (Count)
system.cpu.statFuBusy::SimdShiftAcc                 0      0.00%      4.32% # attempts to use FU when none available (Count)
system.cpu.statFuBusy::SimdDiv                      0      0.00%      4.32% # attempts to use FU when none available (Count)
system.cpu.statFuBusy::SimdSqrt                     0      0.00%      4.32% # attempts to use FU when none available (Count)
system.cpu.statFuBusy::SimdFloatAdd                 0      0.00%      4.32% # attempts to use FU when none available (Count)
system.cpu.statFuBusy::SimdFloatAlu                 0      0.00%      4.32% # attempts to use FU when none available (Count)
system.cpu.statFuBusy::SimdFloatCmp                 0      0.00%      4.32% # attempts to use FU when none available (Count)
system.cpu.statFuBusy::SimdFloatCvt                 0      0.00%      4.32% # attempts to use FU when none available (Count)
system.cpu.statFuBusy::SimdFloatDiv                 0      0.00%      4.32% # attempts to use FU when none available (Count)
system.cpu.statFuBusy::SimdFloatMisc                0      0.00%      4.32% # attempts to use FU when none available (Count)
system.cpu.statFuBusy::SimdFloatMult                0      0.00%      4.32% # attempts to use FU when none available (Count)
system.cpu.statFuBusy::SimdFloatMultAcc             0      0.00%      4.32% # attempts to use FU when none available (Count)
system.cpu.statFuBusy::SimdFloatMatMultAcc            0      0.00%      4.32% # attempts to use FU when none available (Count)
system.cpu.statFuBusy::SimdFloatSqrt                0      0.00%      4.32% # attempts to use FU when none available (Count)
system.cpu.statFuBusy::SimdReduceAdd                0      0.00%      4.32% # attempts to use FU when none available (Count)
system.cpu.statFuBusy::SimdReduceAlu                0      0.00%      4.32% # attempts to use FU when none available (Count)
system.cpu.statFuBusy::SimdReduceCmp                0      0.00%      4.32% # attempts to use FU when none available (Count)
system.cpu.statFuBusy::SimdFloatReduceAdd            0      0.00%      4.32% # attempts to use FU when none available (Count)
system.cpu.statFuBusy::SimdFloatReduceCmp            0      0.00%      4.32% # attempts to use FU when none available (Count)
system.cpu.statFuBusy::SimdAes                      0      0.00%      4.32% # attempts to use FU when none available (Count)
system.cpu.statFuBusy::SimdAesMix                   0      0.00%      4.32% # attempts to use FU when none available (Count)
system.cpu.statFuBusy::SimdSha1Hash                 0      0.00%      4.32% # attempts to use FU when none available (Count)
system.cpu.statFuBusy::SimdSha1Hash2                0      0.00%      4.32% # attempts to use FU when none available (Count)
system.cpu.statFuBusy::SimdSha256Hash               0      0.00%      4.32% # attempts to use FU when none available (Count)
system.cpu.statFuBusy::SimdSha256Hash2              0      0.00%      4.32% # attempts to use FU when none available (Count)
system.cpu.statFuBusy::SimdShaSigma2                0      0.00%      4.32% # attempts to use FU when none available (Count)
system.cpu.statFuBusy::SimdShaSigma3                0      0.00%      4.32% # attempts to use FU when none available (Count)
system.cpu.statFuBusy::SimdPredAlu                  0      0.00%      4.32% # attempts to use FU when none available (Count)
system.cpu.statFuBusy::Matrix                       0      0.00%      4.32% # attempts to use FU when none available (Count)
system.cpu.statFuBusy::MatrixMov                    0      0.00%      4.32% # attempts to use FU when none available (Count)
system.cpu.statFuBusy::MatrixOP                     0      0.00%      4.32% # attempts to use FU when none available (Count)
system.cpu.statFuBusy::MemRead              142206622     71.11%     75.43% # attempts to use FU when none available (Count)
system.cpu.statFuBusy::MemWrite              49116328     24.56%     99.99% # attempts to use FU when none available (Count)
system.cpu.statFuBusy::FloatMemRead             16979      0.01%    100.00% # attempts to use FU when none available (Count)
system.cpu.statFuBusy::FloatMemWrite             2977      0.00%    100.00% # attempts to use FU when none available (Count)
system.cpu.statFuBusy::IprAccess                    0      0.00%    100.00% # attempts to use FU when none available (Count)
system.cpu.statFuBusy::InstPrefetch                 0      0.00%    100.00% # attempts to use FU when none available (Count)
system.cpu.statFuBusy::SimdUnitStrideLoad            0      0.00%    100.00% # attempts to use FU when none available (Count)
system.cpu.statFuBusy::SimdUnitStrideStore            0      0.00%    100.00% # attempts to use FU when none available (Count)
system.cpu.statFuBusy::SimdUnitStrideMaskLoad            0      0.00%    100.00% # attempts to use FU when none available (Count)
system.cpu.statFuBusy::SimdUnitStrideMaskStore            0      0.00%    100.00% # attempts to use FU when none available (Count)
system.cpu.statFuBusy::SimdStridedLoad              0      0.00%    100.00% # attempts to use FU when none available (Count)
system.cpu.statFuBusy::SimdStridedStore             0      0.00%    100.00% # attempts to use FU when none available (Count)
system.cpu.statFuBusy::SimdIndexedLoad              0      0.00%    100.00% # attempts to use FU when none available (Count)
system.cpu.statFuBusy::SimdIndexedStore             0      0.00%    100.00% # attempts to use FU when none available (Count)
system.cpu.statFuBusy::SimdWholeRegisterLoad            0      0.00%    100.00% # attempts to use FU when none available (Count)
system.cpu.statFuBusy::SimdWholeRegisterStore            0      0.00%    100.00% # attempts to use FU when none available (Count)
system.cpu.statFuBusy::SimdUnitStrideFaultOnlyFirstLoad            0      0.00%    100.00% # attempts to use FU when none available (Count)
system.cpu.statFuBusy::SimdUnitStrideSegmentedLoad            0      0.00%    100.00% # attempts to use FU when none available (Count)
system.cpu.statFuBusy::SimdUnitStrideSegmentedStore            0      0.00%    100.00% # attempts to use FU when none available (Count)
system.cpu.statFuBusy::SimdExt                      0      0.00%    100.00% # attempts to use FU when none available (Count)
system.cpu.statFuBusy::SimdFloatExt                 0      0.00%    100.00% # attempts to use FU when none available (Count)
system.cpu.statFuBusy::SimdConfig                   0      0.00%    100.00% # attempts to use FU when none available (Count)
system.cpu.statIssuedInstType_0::No_OpClass       514141      0.00%      0.00% # Number of instructions issued per FU type, per thread (Count)
system.cpu.statIssuedInstType_0::IntAlu   16899082036     58.48%     58.48% # Number of instructions issued per FU type, per thread (Count)
system.cpu.statIssuedInstType_0::IntMult     96255777      0.33%     58.81% # Number of instructions issued per FU type, per thread (Count)
system.cpu.statIssuedInstType_0::IntDiv          4749      0.00%     58.81% # Number of instructions issued per FU type, per thread (Count)
system.cpu.statIssuedInstType_0::FloatAdd    571733468      1.98%     60.79% # Number of instructions issued per FU type, per thread (Count)
system.cpu.statIssuedInstType_0::FloatCmp            0      0.00%     60.79% # Number of instructions issued per FU type, per thread (Count)
system.cpu.statIssuedInstType_0::FloatCvt         3514      0.00%     60.79% # Number of instructions issued per FU type, per thread (Count)
system.cpu.statIssuedInstType_0::FloatMult            0      0.00%     60.79% # Number of instructions issued per FU type, per thread (Count)
system.cpu.statIssuedInstType_0::FloatMultAcc            0      0.00%     60.79% # Number of instructions issued per FU type, per thread (Count)
system.cpu.statIssuedInstType_0::FloatDiv            0      0.00%     60.79% # Number of instructions issued per FU type, per thread (Count)
system.cpu.statIssuedInstType_0::FloatMisc            0      0.00%     60.79% # Number of instructions issued per FU type, per thread (Count)
system.cpu.statIssuedInstType_0::FloatSqrt            0      0.00%     60.79% # Number of instructions issued per FU type, per thread (Count)
system.cpu.statIssuedInstType_0::SimdAdd          116      0.00%     60.79% # Number of instructions issued per FU type, per thread (Count)
system.cpu.statIssuedInstType_0::SimdAddAcc            0      0.00%     60.79% # Number of instructions issued per FU type, per thread (Count)
system.cpu.statIssuedInstType_0::SimdAlu    191513667      0.66%     61.45% # Number of instructions issued per FU type, per thread (Count)
system.cpu.statIssuedInstType_0::SimdCmp            0      0.00%     61.45% # Number of instructions issued per FU type, per thread (Count)
system.cpu.statIssuedInstType_0::SimdCvt         1591      0.00%     61.45% # Number of instructions issued per FU type, per thread (Count)
system.cpu.statIssuedInstType_0::SimdMisc    190774543      0.66%     62.11% # Number of instructions issued per FU type, per thread (Count)
system.cpu.statIssuedInstType_0::SimdMult            0      0.00%     62.11% # Number of instructions issued per FU type, per thread (Count)
system.cpu.statIssuedInstType_0::SimdMultAcc            0      0.00%     62.11% # Number of instructions issued per FU type, per thread (Count)
system.cpu.statIssuedInstType_0::SimdMatMultAcc            0      0.00%     62.11% # Number of instructions issued per FU type, per thread (Count)
system.cpu.statIssuedInstType_0::SimdShift            0      0.00%     62.11% # Number of instructions issued per FU type, per thread (Count)
system.cpu.statIssuedInstType_0::SimdShiftAcc            0      0.00%     62.11% # Number of instructions issued per FU type, per thread (Count)
system.cpu.statIssuedInstType_0::SimdDiv            0      0.00%     62.11% # Number of instructions issued per FU type, per thread (Count)
system.cpu.statIssuedInstType_0::SimdSqrt            0      0.00%     62.11% # Number of instructions issued per FU type, per thread (Count)
system.cpu.statIssuedInstType_0::SimdFloatAdd     95317205      0.33%     62.44% # Number of instructions issued per FU type, per thread (Count)
system.cpu.statIssuedInstType_0::SimdFloatAlu            0      0.00%     62.44% # Number of instructions issued per FU type, per thread (Count)
system.cpu.statIssuedInstType_0::SimdFloatCmp            0      0.00%     62.44% # Number of instructions issued per FU type, per thread (Count)
system.cpu.statIssuedInstType_0::SimdFloatCvt    285351291      0.99%     63.43% # Number of instructions issued per FU type, per thread (Count)
system.cpu.statIssuedInstType_0::SimdFloatDiv       569256      0.00%     63.43% # Number of instructions issued per FU type, per thread (Count)
system.cpu.statIssuedInstType_0::SimdFloatMisc            0      0.00%     63.43% # Number of instructions issued per FU type, per thread (Count)
system.cpu.statIssuedInstType_0::SimdFloatMult     94749951      0.33%     63.76% # Number of instructions issued per FU type, per thread (Count)
system.cpu.statIssuedInstType_0::SimdFloatMultAcc            0      0.00%     63.76% # Number of instructions issued per FU type, per thread (Count)
system.cpu.statIssuedInstType_0::SimdFloatMatMultAcc            0      0.00%     63.76% # Number of instructions issued per FU type, per thread (Count)
system.cpu.statIssuedInstType_0::SimdFloatSqrt            0      0.00%     63.76% # Number of instructions issued per FU type, per thread (Count)
system.cpu.statIssuedInstType_0::SimdReduceAdd            0      0.00%     63.76% # Number of instructions issued per FU type, per thread (Count)
system.cpu.statIssuedInstType_0::SimdReduceAlu            0      0.00%     63.76% # Number of instructions issued per FU type, per thread (Count)
system.cpu.statIssuedInstType_0::SimdReduceCmp            0      0.00%     63.76% # Number of instructions issued per FU type, per thread (Count)
system.cpu.statIssuedInstType_0::SimdFloatReduceAdd            0      0.00%     63.76% # Number of instructions issued per FU type, per thread (Count)
system.cpu.statIssuedInstType_0::SimdFloatReduceCmp            0      0.00%     63.76% # Number of instructions issued per FU type, per thread (Count)
system.cpu.statIssuedInstType_0::SimdAes            0      0.00%     63.76% # Number of instructions issued per FU type, per thread (Count)
system.cpu.statIssuedInstType_0::SimdAesMix            0      0.00%     63.76% # Number of instructions issued per FU type, per thread (Count)
system.cpu.statIssuedInstType_0::SimdSha1Hash            0      0.00%     63.76% # Number of instructions issued per FU type, per thread (Count)
system.cpu.statIssuedInstType_0::SimdSha1Hash2            0      0.00%     63.76% # Number of instructions issued per FU type, per thread (Count)
system.cpu.statIssuedInstType_0::SimdSha256Hash            0      0.00%     63.76% # Number of instructions issued per FU type, per thread (Count)
system.cpu.statIssuedInstType_0::SimdSha256Hash2            0      0.00%     63.76% # Number of instructions issued per FU type, per thread (Count)
system.cpu.statIssuedInstType_0::SimdShaSigma2            0      0.00%     63.76% # Number of instructions issued per FU type, per thread (Count)
system.cpu.statIssuedInstType_0::SimdShaSigma3            0      0.00%     63.76% # Number of instructions issued per FU type, per thread (Count)
system.cpu.statIssuedInstType_0::SimdPredAlu            0      0.00%     63.76% # Number of instructions issued per FU type, per thread (Count)
system.cpu.statIssuedInstType_0::Matrix             0      0.00%     63.76% # Number of instructions issued per FU type, per thread (Count)
system.cpu.statIssuedInstType_0::MatrixMov            0      0.00%     63.76% # Number of instructions issued per FU type, per thread (Count)
system.cpu.statIssuedInstType_0::MatrixOP            0      0.00%     63.76% # Number of instructions issued per FU type, per thread (Count)
system.cpu.statIssuedInstType_0::MemRead   5909044832     20.45%     84.21% # Number of instructions issued per FU type, per thread (Count)
system.cpu.statIssuedInstType_0::MemWrite   3704500675     12.82%     97.03% # Number of instructions issued per FU type, per thread (Count)
system.cpu.statIssuedInstType_0::FloatMemRead    666924838      2.31%     99.34% # Number of instructions issued per FU type, per thread (Count)
system.cpu.statIssuedInstType_0::FloatMemWrite    192090595      0.66%    100.00% # Number of instructions issued per FU type, per thread (Count)
system.cpu.statIssuedInstType_0::IprAccess            0      0.00%    100.00% # Number of instructions issued per FU type, per thread (Count)
system.cpu.statIssuedInstType_0::InstPrefetch            0      0.00%    100.00% # Number of instructions issued per FU type, per thread (Count)
system.cpu.statIssuedInstType_0::SimdUnitStrideLoad            0      0.00%    100.00% # Number of instructions issued per FU type, per thread (Count)
system.cpu.statIssuedInstType_0::SimdUnitStrideStore            0      0.00%    100.00% # Number of instructions issued per FU type, per thread (Count)
system.cpu.statIssuedInstType_0::SimdUnitStrideMaskLoad            0      0.00%    100.00% # Number of instructions issued per FU type, per thread (Count)
system.cpu.statIssuedInstType_0::SimdUnitStrideMaskStore            0      0.00%    100.00% # Number of instructions issued per FU type, per thread (Count)
system.cpu.statIssuedInstType_0::SimdStridedLoad            0      0.00%    100.00% # Number of instructions issued per FU type, per thread (Count)
system.cpu.statIssuedInstType_0::SimdStridedStore            0      0.00%    100.00% # Number of instructions issued per FU type, per thread (Count)
system.cpu.statIssuedInstType_0::SimdIndexedLoad            0      0.00%    100.00% # Number of instructions issued per FU type, per thread (Count)
system.cpu.statIssuedInstType_0::SimdIndexedStore            0      0.00%    100.00% # Number of instructions issued per FU type, per thread (Count)
system.cpu.statIssuedInstType_0::SimdWholeRegisterLoad            0      0.00%    100.00% # Number of instructions issued per FU type, per thread (Count)
system.cpu.statIssuedInstType_0::SimdWholeRegisterStore            0      0.00%    100.00% # Number of instructions issued per FU type, per thread (Count)
system.cpu.statIssuedInstType_0::SimdUnitStrideFaultOnlyFirstLoad            0      0.00%    100.00% # Number of instructions issued per FU type, per thread (Count)
system.cpu.statIssuedInstType_0::SimdUnitStrideSegmentedLoad            0      0.00%    100.00% # Number of instructions issued per FU type, per thread (Count)
system.cpu.statIssuedInstType_0::SimdUnitStrideSegmentedStore            0      0.00%    100.00% # Number of instructions issued per FU type, per thread (Count)
system.cpu.statIssuedInstType_0::SimdExt            0      0.00%    100.00% # Number of instructions issued per FU type, per thread (Count)
system.cpu.statIssuedInstType_0::SimdFloatExt            0      0.00%    100.00% # Number of instructions issued per FU type, per thread (Count)
system.cpu.statIssuedInstType_0::SimdConfig            0      0.00%    100.00% # Number of instructions issued per FU type, per thread (Count)
system.cpu.statIssuedInstType_0::total    28898432245                       # Number of instructions issued per FU type, per thread (Count)
system.cpu.issueRate                         1.081213                       # Inst issue rate ((Count/Cycle))
system.cpu.fuBusy                           199983676                       # FU busy when requested (Count)
system.cpu.fuBusyRate                        0.006920                       # FU busy rate (busy events/executed inst) ((Count/Count))
system.cpu.intInstQueueReads              80024864475                       # Number of integer instruction queue reads (Count)
system.cpu.intInstQueueWrites             26681838481                       # Number of integer instruction queue writes (Count)
system.cpu.intInstQueueWakeupAccesses     26605867558                       # Number of integer instruction queue wakeup accesses (Count)
system.cpu.fpInstQueueReads                4578082498                       # Number of floating instruction queue reads (Count)
system.cpu.fpInstQueueWrites               2291974630                       # Number of floating instruction queue writes (Count)
system.cpu.fpInstQueueWakeupAccesses       2288865486                       # Number of floating instruction queue wakeup accesses (Count)
system.cpu.vecInstQueueReads                        0                       # Number of vector instruction queue reads (Count)
system.cpu.vecInstQueueWrites                       0                       # Number of vector instruction queue writes (Count)
system.cpu.vecInstQueueWakeupAccesses               0                       # Number of vector instruction queue wakeup accesses (Count)
system.cpu.intAluAccesses                 26808850526                       # Number of integer alu accesses (Count)
system.cpu.fpAluAccesses                   2289051254                       # Number of floating point alu accesses (Count)
system.cpu.vecAluAccesses                           0                       # Number of vector alu accesses (Count)
system.cpu.numSquashedInsts                   2976010                       # Number of squashed instructions skipped in execute (Count)
system.cpu.numSwp                                   0                       # Number of swp insts executed (Count)
system.cpu.timesIdled                           19197                       # Number of times that the entire CPU went into an idle state and unscheduled itself (Count)
system.cpu.idleCycles                       121739395                       # Total number of cycles that the CPU has spent unscheduled due to idling (Cycle)
system.cpu.MemDepUnit__0.insertedLoads     6580340402                       # Number of loads inserted to the mem dependence unit. (Count)
system.cpu.MemDepUnit__0.insertedStores    3898849491                       # Number of stores inserted to the mem dependence unit. (Count)
system.cpu.MemDepUnit__0.conflictingLoads   3226055020                       # Number of conflicting loads. (Count)
system.cpu.MemDepUnit__0.conflictingStores    942292582                       # Number of conflicting stores. (Count)
system.cpu.MemDepUnit__1.insertedLoads              0                       # Number of loads inserted to the mem dependence unit. (Count)
system.cpu.MemDepUnit__1.insertedStores             0                       # Number of stores inserted to the mem dependence unit. (Count)
system.cpu.MemDepUnit__1.conflictingLoads            0                       # Number of conflicting loads. (Count)
system.cpu.MemDepUnit__1.conflictingStores            0                       # Number of conflicting stores. (Count)
system.cpu.MemDepUnit__2.insertedLoads              0                       # Number of loads inserted to the mem dependence unit. (Count)
system.cpu.MemDepUnit__2.insertedStores             0                       # Number of stores inserted to the mem dependence unit. (Count)
system.cpu.MemDepUnit__2.conflictingLoads            0                       # Number of conflicting loads. (Count)
system.cpu.MemDepUnit__2.conflictingStores            0                       # Number of conflicting stores. (Count)
system.cpu.MemDepUnit__3.insertedLoads              0                       # Number of loads inserted to the mem dependence unit. (Count)
system.cpu.MemDepUnit__3.insertedStores             0                       # Number of stores inserted to the mem dependence unit. (Count)
system.cpu.MemDepUnit__3.conflictingLoads            0                       # Number of conflicting loads. (Count)
system.cpu.MemDepUnit__3.conflictingStores            0                       # Number of conflicting stores. (Count)
system.cpu.branchPred.lookups_0::NoBranch            0      0.00%      0.00% # Number of BP lookups (Count)
system.cpu.branchPred.lookups_0::Return     873744985     40.45%     40.45% # Number of BP lookups (Count)
system.cpu.branchPred.lookups_0::CallDirect    873618318     40.44%     80.89% # Number of BP lookups (Count)
system.cpu.branchPred.lookups_0::CallIndirect        11366      0.00%     80.89% # Number of BP lookups (Count)
system.cpu.branchPred.lookups_0::DirectCond    406114764     18.80%     99.69% # Number of BP lookups (Count)
system.cpu.branchPred.lookups_0::DirectUncond      5320246      0.25%     99.94% # Number of BP lookups (Count)
system.cpu.branchPred.lookups_0::IndirectCond            0      0.00%     99.94% # Number of BP lookups (Count)
system.cpu.branchPred.lookups_0::IndirectUncond      1329060      0.06%    100.00% # Number of BP lookups (Count)
system.cpu.branchPred.lookups_0::total     2160138739                       # Number of BP lookups (Count)
system.cpu.branchPred.squashes_0::NoBranch            0      0.00%      0.00% # Number of branches that got squashed (completely removed) as an earlier branch was mispredicted. (Count)
system.cpu.branchPred.squashes_0::Return      2676761     39.98%     39.98% # Number of branches that got squashed (completely removed) as an earlier branch was mispredicted. (Count)
system.cpu.branchPred.squashes_0::CallDirect      2555682     38.17%     78.14% # Number of branches that got squashed (completely removed) as an earlier branch was mispredicted. (Count)
system.cpu.branchPred.squashes_0::CallIndirect         5774      0.09%     78.23% # Number of branches that got squashed (completely removed) as an earlier branch was mispredicted. (Count)
system.cpu.branchPred.squashes_0::DirectCond      1235470     18.45%     96.68% # Number of branches that got squashed (completely removed) as an earlier branch was mispredicted. (Count)
system.cpu.branchPred.squashes_0::DirectUncond       213940      3.20%     99.88% # Number of branches that got squashed (completely removed) as an earlier branch was mispredicted. (Count)
system.cpu.branchPred.squashes_0::IndirectCond            0      0.00%     99.88% # Number of branches that got squashed (completely removed) as an earlier branch was mispredicted. (Count)
system.cpu.branchPred.squashes_0::IndirectUncond         8289      0.12%    100.00% # Number of branches that got squashed (completely removed) as an earlier branch was mispredicted. (Count)
system.cpu.branchPred.squashes_0::total       6695916                       # Number of branches that got squashed (completely removed) as an earlier branch was mispredicted. (Count)
system.cpu.branchPred.corrected_0::NoBranch            0      0.00%      0.00% # Number of branches that got corrected but not yet commited. Branches get corrected by decode or after execute. Also a branch misprediction can be detected out-of-order. Therefore, a corrected branch might not end up beeing committed in case an even earlier branch was mispredicted (Count)
system.cpu.branchPred.corrected_0::Return         3079      0.59%      0.59% # Number of branches that got corrected but not yet commited. Branches get corrected by decode or after execute. Also a branch misprediction can be detected out-of-order. Therefore, a corrected branch might not end up beeing committed in case an even earlier branch was mispredicted (Count)
system.cpu.branchPred.corrected_0::CallDirect        25499      4.91%      5.50% # Number of branches that got corrected but not yet commited. Branches get corrected by decode or after execute. Also a branch misprediction can be detected out-of-order. Therefore, a corrected branch might not end up beeing committed in case an even earlier branch was mispredicted (Count)
system.cpu.branchPred.corrected_0::CallIndirect          716      0.14%      5.64% # Number of branches that got corrected but not yet commited. Branches get corrected by decode or after execute. Also a branch misprediction can be detected out-of-order. Therefore, a corrected branch might not end up beeing committed in case an even earlier branch was mispredicted (Count)
system.cpu.branchPred.corrected_0::DirectCond       483617     93.15%     98.79% # Number of branches that got corrected but not yet commited. Branches get corrected by decode or after execute. Also a branch misprediction can be detected out-of-order. Therefore, a corrected branch might not end up beeing committed in case an even earlier branch was mispredicted (Count)
system.cpu.branchPred.corrected_0::DirectUncond         5615      1.08%     99.87% # Number of branches that got corrected but not yet commited. Branches get corrected by decode or after execute. Also a branch misprediction can be detected out-of-order. Therefore, a corrected branch might not end up beeing committed in case an even earlier branch was mispredicted (Count)
system.cpu.branchPred.corrected_0::IndirectCond            0      0.00%     99.87% # Number of branches that got corrected but not yet commited. Branches get corrected by decode or after execute. Also a branch misprediction can be detected out-of-order. Therefore, a corrected branch might not end up beeing committed in case an even earlier branch was mispredicted (Count)
system.cpu.branchPred.corrected_0::IndirectUncond          669      0.13%    100.00% # Number of branches that got corrected but not yet commited. Branches get corrected by decode or after execute. Also a branch misprediction can be detected out-of-order. Therefore, a corrected branch might not end up beeing committed in case an even earlier branch was mispredicted (Count)
system.cpu.branchPred.corrected_0::total       519195                       # Number of branches that got corrected but not yet commited. Branches get corrected by decode or after execute. Also a branch misprediction can be detected out-of-order. Therefore, a corrected branch might not end up beeing committed in case an even earlier branch was mispredicted (Count)
system.cpu.branchPred.earlyResteers_0::NoBranch            0                       # Number of branches that got redirected after decode. (Count)
system.cpu.branchPred.earlyResteers_0::Return            0                       # Number of branches that got redirected after decode. (Count)
system.cpu.branchPred.earlyResteers_0::CallDirect            0                       # Number of branches that got redirected after decode. (Count)
system.cpu.branchPred.earlyResteers_0::CallIndirect            0                       # Number of branches that got redirected after decode. (Count)
system.cpu.branchPred.earlyResteers_0::DirectCond            0                       # Number of branches that got redirected after decode. (Count)
system.cpu.branchPred.earlyResteers_0::DirectUncond            0                       # Number of branches that got redirected after decode. (Count)
system.cpu.branchPred.earlyResteers_0::IndirectCond            0                       # Number of branches that got redirected after decode. (Count)
system.cpu.branchPred.earlyResteers_0::IndirectUncond            0                       # Number of branches that got redirected after decode. (Count)
system.cpu.branchPred.earlyResteers_0::total            0                       # Number of branches that got redirected after decode. (Count)
system.cpu.branchPred.committed_0::NoBranch            0      0.00%      0.00% # Number of branches finally committed  (Count)
system.cpu.branchPred.committed_0::Return    871068224     40.45%     40.45% # Number of branches finally committed  (Count)
system.cpu.branchPred.committed_0::CallDirect    871062636     40.45%     80.90% # Number of branches finally committed  (Count)
system.cpu.branchPred.committed_0::CallIndirect         5592      0.00%     80.90% # Number of branches finally committed  (Count)
system.cpu.branchPred.committed_0::DirectCond    404879293     18.80%     99.70% # Number of branches finally committed  (Count)
system.cpu.branchPred.committed_0::DirectUncond      5106306      0.24%     99.94% # Number of branches finally committed  (Count)
system.cpu.branchPred.committed_0::IndirectCond            0      0.00%     99.94% # Number of branches finally committed  (Count)
system.cpu.branchPred.committed_0::IndirectUncond      1320771      0.06%    100.00% # Number of branches finally committed  (Count)
system.cpu.branchPred.committed_0::total   2153442822                       # Number of branches finally committed  (Count)
system.cpu.branchPred.mispredicted_0::NoBranch            0      0.00%      0.00% # Number of committed branches that were mispredicted. (Count)
system.cpu.branchPred.mispredicted_0::Return         2940      0.60%      0.60% # Number of committed branches that were mispredicted. (Count)
system.cpu.branchPred.mispredicted_0::CallDirect        17007      3.48%      4.08% # Number of committed branches that were mispredicted. (Count)
system.cpu.branchPred.mispredicted_0::CallIndirect          570      0.12%      4.19% # Number of committed branches that were mispredicted. (Count)
system.cpu.branchPred.mispredicted_0::DirectCond       465085     95.06%     99.25% # Number of committed branches that were mispredicted. (Count)
system.cpu.branchPred.mispredicted_0::DirectUncond         3047      0.62%     99.87% # Number of committed branches that were mispredicted. (Count)
system.cpu.branchPred.mispredicted_0::IndirectCond            0      0.00%     99.87% # Number of committed branches that were mispredicted. (Count)
system.cpu.branchPred.mispredicted_0::IndirectUncond          626      0.13%    100.00% # Number of committed branches that were mispredicted. (Count)
system.cpu.branchPred.mispredicted_0::total       489275                       # Number of committed branches that were mispredicted. (Count)
system.cpu.branchPred.targetProvider_0::NoTarget     17375494      0.80%      0.80% # The component providing the target for taken branches (Count)
system.cpu.branchPred.targetProvider_0::BTB   1267685156     58.69%     59.49% # The component providing the target for taken branches (Count)
system.cpu.branchPred.targetProvider_0::RAS    873744980     40.45%     99.94% # The component providing the target for taken branches (Count)
system.cpu.branchPred.targetProvider_0::Indirect      1333109      0.06%    100.00% # The component providing the target for taken branches (Count)
system.cpu.branchPred.targetProvider_0::total   2160138739                       # The component providing the target for taken branches (Count)
system.cpu.branchPred.targetWrong_0::NoBranch        96875     18.67%     18.67% # Number of branches where the target was incorrect or not available at prediction time. (Count)
system.cpu.branchPred.targetWrong_0::Return       418841     80.73%     99.40% # Number of branches where the target was incorrect or not available at prediction time. (Count)
system.cpu.branchPred.targetWrong_0::CallDirect         3079      0.59%    100.00% # Number of branches where the target was incorrect or not available at prediction time. (Count)
system.cpu.branchPred.targetWrong_0::CallIndirect           21      0.00%    100.00% # Number of branches where the target was incorrect or not available at prediction time. (Count)
system.cpu.branchPred.targetWrong_0::DirectCond            0      0.00%    100.00% # Number of branches where the target was incorrect or not available at prediction time. (Count)
system.cpu.branchPred.targetWrong_0::DirectUncond            0      0.00%    100.00% # Number of branches where the target was incorrect or not available at prediction time. (Count)
system.cpu.branchPred.targetWrong_0::IndirectCond            0      0.00%    100.00% # Number of branches where the target was incorrect or not available at prediction time. (Count)
system.cpu.branchPred.targetWrong_0::IndirectUncond            0      0.00%    100.00% # Number of branches where the target was incorrect or not available at prediction time. (Count)
system.cpu.branchPred.targetWrong_0::total       518816                       # Number of branches where the target was incorrect or not available at prediction time. (Count)
system.cpu.branchPred.condPredicted         406114764                       # Number of conditional branches predicted (Count)
system.cpu.branchPred.condPredictedTaken    388805283                       # Number of conditional branches predicted as taken (Count)
system.cpu.branchPred.condIncorrect            519195                       # Number of conditional branches incorrect (Count)
system.cpu.branchPred.predTakenBTBMiss          40292                       # Number of branches predicted taken but missed in BTB (Count)
system.cpu.branchPred.NotTakenMispredicted       102567                       # Number branches predicted 'not taken' but turned out to be taken (Count)
system.cpu.branchPred.TakenMispredicted        416628                       # Number branches predicted taken but are actually not taken (Count)
system.cpu.branchPred.BTBLookups           2160138739                       # Number of BTB lookups (Count)
system.cpu.branchPred.BTBUpdates                98103                       # Number of BTB updates (Count)
system.cpu.branchPred.BTBHits              1274692767                       # Number of BTB hits (Count)
system.cpu.branchPred.BTBHitRatio            0.590098                       # BTB Hit Ratio (Ratio)
system.cpu.branchPred.BTBMispredicted           43836                       # Number BTB mispredictions. No target found or target wrong (Count)
system.cpu.branchPred.indirectLookups         1340426                       # Number of indirect predictor lookups. (Count)
system.cpu.branchPred.indirectHits            1333109                       # Number of indirect target hits. (Count)
system.cpu.branchPred.indirectMisses             7317                       # Number of indirect misses. (Count)
system.cpu.branchPred.indirectMispredicted            0                       # Number of mispredicted indirect branches. (Count)
system.cpu.branchPred.btb.lookups::NoBranch            0      0.00%      0.00% # Number of BTB lookups (Count)
system.cpu.branchPred.btb.lookups::Return    873744985     40.45%     40.45% # Number of BTB lookups (Count)
system.cpu.branchPred.btb.lookups::CallDirect    873618318     40.44%     80.89% # Number of BTB lookups (Count)
system.cpu.branchPred.btb.lookups::CallIndirect        11366      0.00%     80.89% # Number of BTB lookups (Count)
system.cpu.branchPred.btb.lookups::DirectCond    406114764     18.80%     99.69% # Number of BTB lookups (Count)
system.cpu.branchPred.btb.lookups::DirectUncond      5320246      0.25%     99.94% # Number of BTB lookups (Count)
system.cpu.branchPred.btb.lookups::IndirectCond            0      0.00%     99.94% # Number of BTB lookups (Count)
system.cpu.branchPred.btb.lookups::IndirectUncond      1329060      0.06%    100.00% # Number of BTB lookups (Count)
system.cpu.branchPred.btb.lookups::total   2160138739                       # Number of BTB lookups (Count)
system.cpu.branchPred.btb.misses::NoBranch            0      0.00%      0.00% # Number of BTB misses (Count)
system.cpu.branchPred.btb.misses::Return    873744911     98.68%     98.68% # Number of BTB misses (Count)
system.cpu.branchPred.btb.misses::CallDirect        32275      0.00%     98.68% # Number of BTB misses (Count)
system.cpu.branchPred.btb.misses::CallIndirect        11219      0.00%     98.68% # Number of BTB misses (Count)
system.cpu.branchPred.btb.misses::DirectCond     10322419      1.17%     99.85% # Number of BTB misses (Count)
system.cpu.branchPred.btb.misses::DirectUncond         6088      0.00%     99.85% # Number of BTB misses (Count)
system.cpu.branchPred.btb.misses::IndirectCond            0      0.00%     99.85% # Number of BTB misses (Count)
system.cpu.branchPred.btb.misses::IndirectUncond      1329060      0.15%    100.00% # Number of BTB misses (Count)
system.cpu.branchPred.btb.misses::total     885445972                       # Number of BTB misses (Count)
system.cpu.branchPred.btb.updates::NoBranch            0      0.00%      0.00% # Number of BTB updates (Count)
system.cpu.branchPred.btb.updates::Return            0      0.00%      0.00% # Number of BTB updates (Count)
system.cpu.branchPred.btb.updates::CallDirect        25499     25.99%     25.99% # Number of BTB updates (Count)
system.cpu.branchPred.btb.updates::CallIndirect            0      0.00%     25.99% # Number of BTB updates (Count)
system.cpu.branchPred.btb.updates::DirectCond        66989     68.28%     94.28% # Number of BTB updates (Count)
system.cpu.branchPred.btb.updates::DirectUncond         5615      5.72%    100.00% # Number of BTB updates (Count)
system.cpu.branchPred.btb.updates::IndirectCond            0      0.00%    100.00% # Number of BTB updates (Count)
system.cpu.branchPred.btb.updates::IndirectUncond            0      0.00%    100.00% # Number of BTB updates (Count)
system.cpu.branchPred.btb.updates::total        98103                       # Number of BTB updates (Count)
system.cpu.branchPred.btb.mispredict::NoBranch            0      0.00%      0.00% # Number of BTB mispredictions. No target found or target wrong. (Count)
system.cpu.branchPred.btb.mispredict::Return            0      0.00%      0.00% # Number of BTB mispredictions. No target found or target wrong. (Count)
system.cpu.branchPred.btb.mispredict::CallDirect        25499     25.99%     25.99% # Number of BTB mispredictions. No target found or target wrong. (Count)
system.cpu.branchPred.btb.mispredict::CallIndirect            0      0.00%     25.99% # Number of BTB mispredictions. No target found or target wrong. (Count)
system.cpu.branchPred.btb.mispredict::DirectCond        66989     68.28%     94.28% # Number of BTB mispredictions. No target found or target wrong. (Count)
system.cpu.branchPred.btb.mispredict::DirectUncond         5615      5.72%    100.00% # Number of BTB mispredictions. No target found or target wrong. (Count)
system.cpu.branchPred.btb.mispredict::IndirectCond            0      0.00%    100.00% # Number of BTB mispredictions. No target found or target wrong. (Count)
system.cpu.branchPred.btb.mispredict::IndirectUncond            0      0.00%    100.00% # Number of BTB mispredictions. No target found or target wrong. (Count)
system.cpu.branchPred.btb.mispredict::total        98103                       # Number of BTB mispredictions. No target found or target wrong. (Count)
system.cpu.branchPred.btb.power_state.pwrStateResidencyTicks::UNDEFINED 8365795148764                       # Cumulative time (in ticks) in various power states (Tick)
system.cpu.branchPred.indirectBranchPred.lookups      1340426                       # Number of lookups (Count)
system.cpu.branchPred.indirectBranchPred.hits      1333109                       # Number of hits of a tag (Count)
system.cpu.branchPred.indirectBranchPred.misses         7317                       # Number of misses (Count)
system.cpu.branchPred.indirectBranchPred.targetRecords         1385                       # Number of targets that where recorded/installed in the cache (Count)
system.cpu.branchPred.indirectBranchPred.indirectRecords      1341811                       # Number of indirect branches/calls recorded in the indirect hist (Count)
system.cpu.branchPred.indirectBranchPred.speculativeOverflows            0                       # Number of times more than the allowed capacity for speculative branches/calls where in flight and destroy the path history (Count)
system.cpu.branchPred.ras.pushes            876306445                       # Number of times a PC was pushed onto the RAS (Count)
system.cpu.branchPred.ras.pops              876306441                       # Number of times a PC was poped from the RAS (Count)
system.cpu.branchPred.ras.squashes            5238217                       # Number of times the stack operation was squashed due to wrong speculation. (Count)
system.cpu.branchPred.ras.used              871068224                       # Number of times the RAS is the provider (Count)
system.cpu.branchPred.ras.correct           871065284                       # Number of times the RAS is the provider and the prediction is correct (Count)
system.cpu.branchPred.ras.incorrect              2940                       # Number of times the RAS is the provider and the prediction is wrong (Count)
system.cpu.commit.commitSquashedInsts        57140411                       # The number of squashed insts skipped by commit (Count)
system.cpu.commit.commitNonSpecStalls           29499                       # The number of times commit has been forced to stall to communicate backwards (Count)
system.cpu.commit.branchMispredicts            488146                       # The number of times a branch was mispredicted (Count)
system.cpu.commit.numCommittedDist::samples  26598116395                       # Number of insts commited each cycle (Count)
system.cpu.commit.numCommittedDist::mean     1.084971                       # Number of insts commited each cycle (Count)
system.cpu.commit.numCommittedDist::stdev     2.396185                       # Number of insts commited each cycle (Count)
system.cpu.commit.numCommittedDist::underflows            0      0.00%      0.00% # Number of insts commited each cycle (Count)
system.cpu.commit.numCommittedDist::0     19846378059     74.62%     74.62% # Number of insts commited each cycle (Count)
system.cpu.commit.numCommittedDist::1      2180624259      8.20%     82.81% # Number of insts commited each cycle (Count)
system.cpu.commit.numCommittedDist::2       581339735      2.19%     85.00% # Number of insts commited each cycle (Count)
system.cpu.commit.numCommittedDist::3       812114340      3.05%     88.05% # Number of insts commited each cycle (Count)
system.cpu.commit.numCommittedDist::4       154434196      0.58%     88.63% # Number of insts commited each cycle (Count)
system.cpu.commit.numCommittedDist::5       279783042      1.05%     89.69% # Number of insts commited each cycle (Count)
system.cpu.commit.numCommittedDist::6       226341897      0.85%     90.54% # Number of insts commited each cycle (Count)
system.cpu.commit.numCommittedDist::7       432967111      1.63%     92.16% # Number of insts commited each cycle (Count)
system.cpu.commit.numCommittedDist::8      2084133756      7.84%    100.00% # Number of insts commited each cycle (Count)
system.cpu.commit.numCommittedDist::overflows            0      0.00%    100.00% # Number of insts commited each cycle (Count)
system.cpu.commit.numCommittedDist::min_value            0                       # Number of insts commited each cycle (Count)
system.cpu.commit.numCommittedDist::max_value            8                       # Number of insts commited each cycle (Count)
system.cpu.commit.numCommittedDist::total  26598116395                       # Number of insts commited each cycle (Count)
system.cpu.commit.amos                              0                       # Number of atomic instructions committed (Count)
system.cpu.commit.membars                       19510                       # Number of memory barriers committed (Count)
system.cpu.commit.functionCalls             871068228                       # Number of function calls committed. (Count)
system.cpu.commit.committedInstType_0::No_OpClass       508395      0.00%      0.00% # Class of committed instruction (Count)
system.cpu.commit.committedInstType_0::IntAlu  16872886976     58.47%     58.47% # Class of committed instruction (Count)
system.cpu.commit.committedInstType_0::IntMult     96244532      0.33%     58.80% # Class of committed instruction (Count)
system.cpu.commit.committedInstType_0::IntDiv         4053      0.00%     58.80% # Class of committed instruction (Count)
system.cpu.commit.committedInstType_0::FloatAdd    571259072      1.98%     60.78% # Class of committed instruction (Count)
system.cpu.commit.committedInstType_0::FloatCmp            0      0.00%     60.78% # Class of committed instruction (Count)
system.cpu.commit.committedInstType_0::FloatCvt          416      0.00%     60.78% # Class of committed instruction (Count)
system.cpu.commit.committedInstType_0::FloatMult            0      0.00%     60.78% # Class of committed instruction (Count)
system.cpu.commit.committedInstType_0::FloatMultAcc            0      0.00%     60.78% # Class of committed instruction (Count)
system.cpu.commit.committedInstType_0::FloatDiv            0      0.00%     60.78% # Class of committed instruction (Count)
system.cpu.commit.committedInstType_0::FloatMisc            0      0.00%     60.78% # Class of committed instruction (Count)
system.cpu.commit.committedInstType_0::FloatSqrt            0      0.00%     60.78% # Class of committed instruction (Count)
system.cpu.commit.committedInstType_0::SimdAdd          116      0.00%     60.78% # Class of committed instruction (Count)
system.cpu.commit.committedInstType_0::SimdAddAcc            0      0.00%     60.78% # Class of committed instruction (Count)
system.cpu.commit.committedInstType_0::SimdAlu    191351350      0.66%     61.45% # Class of committed instruction (Count)
system.cpu.commit.committedInstType_0::SimdCmp            0      0.00%     61.45% # Class of committed instruction (Count)
system.cpu.commit.committedInstType_0::SimdCvt         1480      0.00%     61.45% # Class of committed instruction (Count)
system.cpu.commit.committedInstType_0::SimdMisc    190669249      0.66%     62.11% # Class of committed instruction (Count)
system.cpu.commit.committedInstType_0::SimdMult            0      0.00%     62.11% # Class of committed instruction (Count)
system.cpu.commit.committedInstType_0::SimdMultAcc            0      0.00%     62.11% # Class of committed instruction (Count)
system.cpu.commit.committedInstType_0::SimdMatMultAcc            0      0.00%     62.11% # Class of committed instruction (Count)
system.cpu.commit.committedInstType_0::SimdShift            0      0.00%     62.11% # Class of committed instruction (Count)
system.cpu.commit.committedInstType_0::SimdShiftAcc            0      0.00%     62.11% # Class of committed instruction (Count)
system.cpu.commit.committedInstType_0::SimdDiv            0      0.00%     62.11% # Class of committed instruction (Count)
system.cpu.commit.committedInstType_0::SimdSqrt            0      0.00%     62.11% # Class of committed instruction (Count)
system.cpu.commit.committedInstType_0::SimdFloatAdd     95308032      0.33%     62.44% # Class of committed instruction (Count)
system.cpu.commit.committedInstType_0::SimdFloatAlu            0      0.00%     62.44% # Class of committed instruction (Count)
system.cpu.commit.committedInstType_0::SimdFloatCmp            0      0.00%     62.44% # Class of committed instruction (Count)
system.cpu.commit.committedInstType_0::SimdFloatCvt    285156096      0.99%     63.43% # Class of committed instruction (Count)
system.cpu.commit.committedInstType_0::SimdFloatDiv       566016      0.00%     63.43% # Class of committed instruction (Count)
system.cpu.commit.committedInstType_0::SimdFloatMisc            0      0.00%     63.43% # Class of committed instruction (Count)
system.cpu.commit.committedInstType_0::SimdFloatMult     94740480      0.33%     63.76% # Class of committed instruction (Count)
system.cpu.commit.committedInstType_0::SimdFloatMultAcc            0      0.00%     63.76% # Class of committed instruction (Count)
system.cpu.commit.committedInstType_0::SimdFloatMatMultAcc            0      0.00%     63.76% # Class of committed instruction (Count)
system.cpu.commit.committedInstType_0::SimdFloatSqrt            0      0.00%     63.76% # Class of committed instruction (Count)
system.cpu.commit.committedInstType_0::SimdReduceAdd            0      0.00%     63.76% # Class of committed instruction (Count)
system.cpu.commit.committedInstType_0::SimdReduceAlu            0      0.00%     63.76% # Class of committed instruction (Count)
system.cpu.commit.committedInstType_0::SimdReduceCmp            0      0.00%     63.76% # Class of committed instruction (Count)
system.cpu.commit.committedInstType_0::SimdFloatReduceAdd            0      0.00%     63.76% # Class of committed instruction (Count)
system.cpu.commit.committedInstType_0::SimdFloatReduceCmp            0      0.00%     63.76% # Class of committed instruction (Count)
system.cpu.commit.committedInstType_0::SimdAes            0      0.00%     63.76% # Class of committed instruction (Count)
system.cpu.commit.committedInstType_0::SimdAesMix            0      0.00%     63.76% # Class of committed instruction (Count)
system.cpu.commit.committedInstType_0::SimdSha1Hash            0      0.00%     63.76% # Class of committed instruction (Count)
system.cpu.commit.committedInstType_0::SimdSha1Hash2            0      0.00%     63.76% # Class of committed instruction (Count)
system.cpu.commit.committedInstType_0::SimdSha256Hash            0      0.00%     63.76% # Class of committed instruction (Count)
system.cpu.commit.committedInstType_0::SimdSha256Hash2            0      0.00%     63.76% # Class of committed instruction (Count)
system.cpu.commit.committedInstType_0::SimdShaSigma2            0      0.00%     63.76% # Class of committed instruction (Count)
system.cpu.commit.committedInstType_0::SimdShaSigma3            0      0.00%     63.76% # Class of committed instruction (Count)
system.cpu.commit.committedInstType_0::SimdPredAlu            0      0.00%     63.76% # Class of committed instruction (Count)
system.cpu.commit.committedInstType_0::Matrix            0      0.00%     63.76% # Class of committed instruction (Count)
system.cpu.commit.committedInstType_0::MatrixMov            0      0.00%     63.76% # Class of committed instruction (Count)
system.cpu.commit.committedInstType_0::MatrixOP            0      0.00%     63.76% # Class of committed instruction (Count)
system.cpu.commit.committedInstType_0::MemRead   5901148869     20.45%     84.20% # Class of committed instruction (Count)
system.cpu.commit.committedInstType_0::MemWrite   3699945446     12.82%     97.03% # Class of committed instruction (Count)
system.cpu.commit.committedInstType_0::FloatMemRead    666370417      2.31%     99.33% # Class of committed instruction (Count)
system.cpu.commit.committedInstType_0::FloatMemWrite    192028955      0.67%    100.00% # Class of committed instruction (Count)
system.cpu.commit.committedInstType_0::IprAccess            0      0.00%    100.00% # Class of committed instruction (Count)
system.cpu.commit.committedInstType_0::InstPrefetch            0      0.00%    100.00% # Class of committed instruction (Count)
system.cpu.commit.committedInstType_0::SimdUnitStrideLoad            0      0.00%    100.00% # Class of committed instruction (Count)
system.cpu.commit.committedInstType_0::SimdUnitStrideStore            0      0.00%    100.00% # Class of committed instruction (Count)
system.cpu.commit.committedInstType_0::SimdUnitStrideMaskLoad            0      0.00%    100.00% # Class of committed instruction (Count)
system.cpu.commit.committedInstType_0::SimdUnitStrideMaskStore            0      0.00%    100.00% # Class of committed instruction (Count)
system.cpu.commit.committedInstType_0::SimdStridedLoad            0      0.00%    100.00% # Class of committed instruction (Count)
system.cpu.commit.committedInstType_0::SimdStridedStore            0      0.00%    100.00% # Class of committed instruction (Count)
system.cpu.commit.committedInstType_0::SimdIndexedLoad            0      0.00%    100.00% # Class of committed instruction (Count)
system.cpu.commit.committedInstType_0::SimdIndexedStore            0      0.00%    100.00% # Class of committed instruction (Count)
system.cpu.commit.committedInstType_0::SimdWholeRegisterLoad            0      0.00%    100.00% # Class of committed instruction (Count)
system.cpu.commit.committedInstType_0::SimdWholeRegisterStore            0      0.00%    100.00% # Class of committed instruction (Count)
system.cpu.commit.committedInstType_0::SimdUnitStrideFaultOnlyFirstLoad            0      0.00%    100.00% # Class of committed instruction (Count)
system.cpu.commit.committedInstType_0::SimdUnitStrideSegmentedLoad            0      0.00%    100.00% # Class of committed instruction (Count)
system.cpu.commit.committedInstType_0::SimdUnitStrideSegmentedStore            0      0.00%    100.00% # Class of committed instruction (Count)
system.cpu.commit.committedInstType_0::SimdExt            0      0.00%    100.00% # Class of committed instruction (Count)
system.cpu.commit.committedInstType_0::SimdFloatExt            0      0.00%    100.00% # Class of committed instruction (Count)
system.cpu.commit.committedInstType_0::SimdConfig            0      0.00%    100.00% # Class of committed instruction (Count)
system.cpu.commit.committedInstType_0::total  28858189950                       # Class of committed instruction (Count)
system.cpu.commit.commitEligibleSamples    2084133756                       # number cycles where commit BW limit reached (Cycle)
system.cpu.commitStats0.numInsts          17353467514                       # Number of instructions committed (thread level) (Count)
system.cpu.commitStats0.numOps            28858189950                       # Number of ops (including micro ops) committed (thread level) (Count)
system.cpu.commitStats0.numInstsNotNOP    17353467514                       # Number of instructions committed excluding NOPs or prefetches (Count)
system.cpu.commitStats0.numOpsNotNOP      28858189950                       # Number of Ops (including micro ops) Simulated (Count)
system.cpu.commitStats0.cpi                  1.540198                       # CPI: cycles per instruction (thread level) ((Cycle/Count))
system.cpu.commitStats0.ipc                  0.649267                       # IPC: instructions per cycle (thread level) ((Count/Cycle))
system.cpu.commitStats0.numMemRefs        10459493687                       # Number of memory references committed (Count)
system.cpu.commitStats0.numFpInsts         2287452858                       # Number of float instructions (Count)
system.cpu.commitStats0.numIntInsts       27613477464                       # Number of integer instructions (Count)
system.cpu.commitStats0.numLoadInsts       6567519286                       # Number of load instructions (Count)
system.cpu.commitStats0.numStoreInsts      3891974401                       # Number of store instructions (Count)
system.cpu.commitStats0.numVecInsts                 0                       # Number of vector instructions (Count)
system.cpu.commitStats0.committedInstType::No_OpClass       508395      0.00%      0.00% # Class of committed instruction. (Count)
system.cpu.commitStats0.committedInstType::IntAlu  16872886976     58.47%     58.47% # Class of committed instruction. (Count)
system.cpu.commitStats0.committedInstType::IntMult     96244532      0.33%     58.80% # Class of committed instruction. (Count)
system.cpu.commitStats0.committedInstType::IntDiv         4053      0.00%     58.80% # Class of committed instruction. (Count)
system.cpu.commitStats0.committedInstType::FloatAdd    571259072      1.98%     60.78% # Class of committed instruction. (Count)
system.cpu.commitStats0.committedInstType::FloatCmp            0      0.00%     60.78% # Class of committed instruction. (Count)
system.cpu.commitStats0.committedInstType::FloatCvt          416      0.00%     60.78% # Class of committed instruction. (Count)
system.cpu.commitStats0.committedInstType::FloatMult            0      0.00%     60.78% # Class of committed instruction. (Count)
system.cpu.commitStats0.committedInstType::FloatMultAcc            0      0.00%     60.78% # Class of committed instruction. (Count)
system.cpu.commitStats0.committedInstType::FloatDiv            0      0.00%     60.78% # Class of committed instruction. (Count)
system.cpu.commitStats0.committedInstType::FloatMisc            0      0.00%     60.78% # Class of committed instruction. (Count)
system.cpu.commitStats0.committedInstType::FloatSqrt            0      0.00%     60.78% # Class of committed instruction. (Count)
system.cpu.commitStats0.committedInstType::SimdAdd          116      0.00%     60.78% # Class of committed instruction. (Count)
system.cpu.commitStats0.committedInstType::SimdAddAcc            0      0.00%     60.78% # Class of committed instruction. (Count)
system.cpu.commitStats0.committedInstType::SimdAlu    191351350      0.66%     61.45% # Class of committed instruction. (Count)
system.cpu.commitStats0.committedInstType::SimdCmp            0      0.00%     61.45% # Class of committed instruction. (Count)
system.cpu.commitStats0.committedInstType::SimdCvt         1480      0.00%     61.45% # Class of committed instruction. (Count)
system.cpu.commitStats0.committedInstType::SimdMisc    190669249      0.66%     62.11% # Class of committed instruction. (Count)
system.cpu.commitStats0.committedInstType::SimdMult            0      0.00%     62.11% # Class of committed instruction. (Count)
system.cpu.commitStats0.committedInstType::SimdMultAcc            0      0.00%     62.11% # Class of committed instruction. (Count)
system.cpu.commitStats0.committedInstType::SimdMatMultAcc            0      0.00%     62.11% # Class of committed instruction. (Count)
system.cpu.commitStats0.committedInstType::SimdShift            0      0.00%     62.11% # Class of committed instruction. (Count)
system.cpu.commitStats0.committedInstType::SimdShiftAcc            0      0.00%     62.11% # Class of committed instruction. (Count)
system.cpu.commitStats0.committedInstType::SimdDiv            0      0.00%     62.11% # Class of committed instruction. (Count)
system.cpu.commitStats0.committedInstType::SimdSqrt            0      0.00%     62.11% # Class of committed instruction. (Count)
system.cpu.commitStats0.committedInstType::SimdFloatAdd     95308032      0.33%     62.44% # Class of committed instruction. (Count)
system.cpu.commitStats0.committedInstType::SimdFloatAlu            0      0.00%     62.44% # Class of committed instruction. (Count)
system.cpu.commitStats0.committedInstType::SimdFloatCmp            0      0.00%     62.44% # Class of committed instruction. (Count)
system.cpu.commitStats0.committedInstType::SimdFloatCvt    285156096      0.99%     63.43% # Class of committed instruction. (Count)
system.cpu.commitStats0.committedInstType::SimdFloatDiv       566016      0.00%     63.43% # Class of committed instruction. (Count)
system.cpu.commitStats0.committedInstType::SimdFloatMisc            0      0.00%     63.43% # Class of committed instruction. (Count)
system.cpu.commitStats0.committedInstType::SimdFloatMult     94740480      0.33%     63.76% # Class of committed instruction. (Count)
system.cpu.commitStats0.committedInstType::SimdFloatMultAcc            0      0.00%     63.76% # Class of committed instruction. (Count)
system.cpu.commitStats0.committedInstType::SimdFloatMatMultAcc            0      0.00%     63.76% # Class of committed instruction. (Count)
system.cpu.commitStats0.committedInstType::SimdFloatSqrt            0      0.00%     63.76% # Class of committed instruction. (Count)
system.cpu.commitStats0.committedInstType::SimdReduceAdd            0      0.00%     63.76% # Class of committed instruction. (Count)
system.cpu.commitStats0.committedInstType::SimdReduceAlu            0      0.00%     63.76% # Class of committed instruction. (Count)
system.cpu.commitStats0.committedInstType::SimdReduceCmp            0      0.00%     63.76% # Class of committed instruction. (Count)
system.cpu.commitStats0.committedInstType::SimdFloatReduceAdd            0      0.00%     63.76% # Class of committed instruction. (Count)
system.cpu.commitStats0.committedInstType::SimdFloatReduceCmp            0      0.00%     63.76% # Class of committed instruction. (Count)
system.cpu.commitStats0.committedInstType::SimdAes            0      0.00%     63.76% # Class of committed instruction. (Count)
system.cpu.commitStats0.committedInstType::SimdAesMix            0      0.00%     63.76% # Class of committed instruction. (Count)
system.cpu.commitStats0.committedInstType::SimdSha1Hash            0      0.00%     63.76% # Class of committed instruction. (Count)
system.cpu.commitStats0.committedInstType::SimdSha1Hash2            0      0.00%     63.76% # Class of committed instruction. (Count)
system.cpu.commitStats0.committedInstType::SimdSha256Hash            0      0.00%     63.76% # Class of committed instruction. (Count)
system.cpu.commitStats0.committedInstType::SimdSha256Hash2            0      0.00%     63.76% # Class of committed instruction. (Count)
system.cpu.commitStats0.committedInstType::SimdShaSigma2            0      0.00%     63.76% # Class of committed instruction. (Count)
system.cpu.commitStats0.committedInstType::SimdShaSigma3            0      0.00%     63.76% # Class of committed instruction. (Count)
system.cpu.commitStats0.committedInstType::SimdPredAlu            0      0.00%     63.76% # Class of committed instruction. (Count)
system.cpu.commitStats0.committedInstType::Matrix            0      0.00%     63.76% # Class of committed instruction. (Count)
system.cpu.commitStats0.committedInstType::MatrixMov            0      0.00%     63.76% # Class of committed instruction. (Count)
system.cpu.commitStats0.committedInstType::MatrixOP            0      0.00%     63.76% # Class of committed instruction. (Count)
system.cpu.commitStats0.committedInstType::MemRead   5901148869     20.45%     84.20% # Class of committed instruction. (Count)
system.cpu.commitStats0.committedInstType::MemWrite   3699945446     12.82%     97.03% # Class of committed instruction. (Count)
system.cpu.commitStats0.committedInstType::FloatMemRead    666370417      2.31%     99.33% # Class of committed instruction. (Count)
system.cpu.commitStats0.committedInstType::FloatMemWrite    192028955      0.67%    100.00% # Class of committed instruction. (Count)
system.cpu.commitStats0.committedInstType::IprAccess            0      0.00%    100.00% # Class of committed instruction. (Count)
system.cpu.commitStats0.committedInstType::InstPrefetch            0      0.00%    100.00% # Class of committed instruction. (Count)
system.cpu.commitStats0.committedInstType::SimdUnitStrideLoad            0      0.00%    100.00% # Class of committed instruction. (Count)
system.cpu.commitStats0.committedInstType::SimdUnitStrideStore            0      0.00%    100.00% # Class of committed instruction. (Count)
system.cpu.commitStats0.committedInstType::SimdUnitStrideMaskLoad            0      0.00%    100.00% # Class of committed instruction. (Count)
system.cpu.commitStats0.committedInstType::SimdUnitStrideMaskStore            0      0.00%    100.00% # Class of committed instruction. (Count)
system.cpu.commitStats0.committedInstType::SimdStridedLoad            0      0.00%    100.00% # Class of committed instruction. (Count)
system.cpu.commitStats0.committedInstType::SimdStridedStore            0      0.00%    100.00% # Class of committed instruction. (Count)
system.cpu.commitStats0.committedInstType::SimdIndexedLoad            0      0.00%    100.00% # Class of committed instruction. (Count)
system.cpu.commitStats0.committedInstType::SimdIndexedStore            0      0.00%    100.00% # Class of committed instruction. (Count)
system.cpu.commitStats0.committedInstType::SimdWholeRegisterLoad            0      0.00%    100.00% # Class of committed instruction. (Count)
system.cpu.commitStats0.committedInstType::SimdWholeRegisterStore            0      0.00%    100.00% # Class of committed instruction. (Count)
system.cpu.commitStats0.committedInstType::SimdUnitStrideFaultOnlyFirstLoad            0      0.00%    100.00% # Class of committed instruction. (Count)
system.cpu.commitStats0.committedInstType::SimdUnitStrideSegmentedLoad            0      0.00%    100.00% # Class of committed instruction. (Count)
system.cpu.commitStats0.committedInstType::SimdUnitStrideSegmentedStore            0      0.00%    100.00% # Class of committed instruction. (Count)
system.cpu.commitStats0.committedInstType::SimdExt            0      0.00%    100.00% # Class of committed instruction. (Count)
system.cpu.commitStats0.committedInstType::SimdFloatExt            0      0.00%    100.00% # Class of committed instruction. (Count)
system.cpu.commitStats0.committedInstType::SimdConfig            0      0.00%    100.00% # Class of committed instruction. (Count)
system.cpu.commitStats0.committedInstType::total  28858189950                       # Class of committed instruction. (Count)
system.cpu.commitStats0.committedControl::IsControl   2153442822                       # Class of control type instructions committed (Count)
system.cpu.commitStats0.committedControl::IsDirectControl   1281048235                       # Class of control type instructions committed (Count)
system.cpu.commitStats0.committedControl::IsIndirectControl    872394587                       # Class of control type instructions committed (Count)
system.cpu.commitStats0.committedControl::IsCondControl    404879293                       # Class of control type instructions committed (Count)
system.cpu.commitStats0.committedControl::IsUncondControl   1748563529                       # Class of control type instructions committed (Count)
system.cpu.commitStats0.committedControl::IsCall    871068228                       # Class of control type instructions committed (Count)
system.cpu.commitStats0.committedControl::IsReturn    871068224                       # Class of control type instructions committed (Count)
system.cpu.dcache.demandHits::cpu.data     6011311858                       # number of demand (read+write) hits (Count)
system.cpu.dcache.demandHits::total        6011311858                       # number of demand (read+write) hits (Count)
system.cpu.dcache.overallHits::cpu.data    6011311858                       # number of overall hits (Count)
system.cpu.dcache.overallHits::total       6011311858                       # number of overall hits (Count)
system.cpu.dcache.demandMisses::cpu.data    137424970                       # number of demand (read+write) misses (Count)
system.cpu.dcache.demandMisses::total       137424970                       # number of demand (read+write) misses (Count)
system.cpu.dcache.overallMisses::cpu.data    137424970                       # number of overall misses (Count)
system.cpu.dcache.overallMisses::total      137424970                       # number of overall misses (Count)
system.cpu.dcache.demandMissLatency::cpu.data 5663851667575                       # number of demand (read+write) miss ticks (Tick)
system.cpu.dcache.demandMissLatency::total 5663851667575                       # number of demand (read+write) miss ticks (Tick)
system.cpu.dcache.overallMissLatency::cpu.data 5663851667575                       # number of overall miss ticks (Tick)
system.cpu.dcache.overallMissLatency::total 5663851667575                       # number of overall miss ticks (Tick)
system.cpu.dcache.demandAccesses::cpu.data   6148736828                       # number of demand (read+write) accesses (Count)
system.cpu.dcache.demandAccesses::total    6148736828                       # number of demand (read+write) accesses (Count)
system.cpu.dcache.overallAccesses::cpu.data   6148736828                       # number of overall (read+write) accesses (Count)
system.cpu.dcache.overallAccesses::total   6148736828                       # number of overall (read+write) accesses (Count)
system.cpu.dcache.demandMissRate::cpu.data     0.022350                       # miss rate for demand accesses (Ratio)
system.cpu.dcache.demandMissRate::total      0.022350                       # miss rate for demand accesses (Ratio)
system.cpu.dcache.overallMissRate::cpu.data     0.022350                       # miss rate for overall accesses (Ratio)
system.cpu.dcache.overallMissRate::total     0.022350                       # miss rate for overall accesses (Ratio)
system.cpu.dcache.demandAvgMissLatency::cpu.data 41214.137922                       # average overall miss latency in ticks ((Tick/Count))
system.cpu.dcache.demandAvgMissLatency::total 41214.137922                       # average overall miss latency in ticks ((Tick/Count))
system.cpu.dcache.overallAvgMissLatency::cpu.data 41214.137922                       # average overall miss latency ((Tick/Count))
system.cpu.dcache.overallAvgMissLatency::total 41214.137922                       # average overall miss latency ((Tick/Count))
system.cpu.dcache.blockedCycles::no_mshrs      8879445                       # number of cycles access was blocked (Cycle)
system.cpu.dcache.blockedCycles::no_targets        35816                       # number of cycles access was blocked (Cycle)
system.cpu.dcache.blockedCauses::no_mshrs         9731                       # number of times access was blocked (Count)
system.cpu.dcache.blockedCauses::no_targets           41                       # number of times access was blocked (Count)
system.cpu.dcache.avgBlocked::no_mshrs     912.490494                       # average number of cycles each access was blocked ((Cycle/Count))
system.cpu.dcache.avgBlocked::no_targets   873.560976                       # average number of cycles each access was blocked ((Cycle/Count))
system.cpu.dcache.writebacks::writebacks     89118840                       # number of writebacks (Count)
system.cpu.dcache.writebacks::total          89118840                       # number of writebacks (Count)
system.cpu.dcache.demandMshrHits::cpu.data       556406                       # number of demand (read+write) MSHR hits (Count)
system.cpu.dcache.demandMshrHits::total        556406                       # number of demand (read+write) MSHR hits (Count)
system.cpu.dcache.overallMshrHits::cpu.data       556406                       # number of overall MSHR hits (Count)
[...]
system.l2.UpgradeReq.misses::total                  1                       # number of UpgradeReq misses (Count)
system.l2.UpgradeReq.missLatency::cpu.data        34743                       # number of UpgradeReq miss ticks (Tick)
system.l2.UpgradeReq.missLatency::total         34743                       # number of UpgradeReq miss ticks (Tick)
system.l2.UpgradeReq.accesses::cpu.data             4                       # number of UpgradeReq accesses(hits+misses) (Count)
system.l2.UpgradeReq.accesses::total                4                       # number of UpgradeReq accesses(hits+misses) (Count)
system.l2.UpgradeReq.missRate::cpu.data      0.250000                       # miss rate for UpgradeReq accesses (Ratio)
system.l2.UpgradeReq.missRate::total         0.250000                       # miss rate for UpgradeReq accesses (Ratio)
system.l2.UpgradeReq.avgMissLatency::cpu.data        34743                       # average UpgradeReq miss latency ((Tick/Count))
system.l2.UpgradeReq.avgMissLatency::total        34743                       # average UpgradeReq miss latency ((Tick/Count))
system.l2.UpgradeReq.mshrMisses::cpu.data            1                       # number of UpgradeReq MSHR misses (Count)
system.l2.UpgradeReq.mshrMisses::total              1                       # number of UpgradeReq MSHR misses (Count)
system.l2.UpgradeReq.mshrMissLatency::cpu.data        28253                       # number of UpgradeReq MSHR miss ticks (Tick)
system.l2.UpgradeReq.mshrMissLatency::total        28253                       # number of UpgradeReq MSHR miss ticks (Tick)
system.l2.UpgradeReq.mshrMissRate::cpu.data     0.250000                       # mshr miss rate for UpgradeReq accesses (Ratio)
system.l2.UpgradeReq.mshrMissRate::total     0.250000                       # mshr miss rate for UpgradeReq accesses (Ratio)
system.l2.UpgradeReq.avgMshrMissLatency::cpu.data        28253                       # average UpgradeReq mshr miss latency ((Tick/Count))
system.l2.UpgradeReq.avgMshrMissLatency::total        28253                       # average UpgradeReq mshr miss latency ((Tick/Count))
system.l2.WritebackClean.hits::writebacks        42305                       # number of WritebackClean hits (Count)
system.l2.WritebackClean.hits::total            42305                       # number of WritebackClean hits (Count)
system.l2.WritebackClean.accesses::writebacks        42305                       # number of WritebackClean accesses(hits+misses) (Count)
system.l2.WritebackClean.accesses::total        42305                       # number of WritebackClean accesses(hits+misses) (Count)
system.l2.WritebackDirty.hits::writebacks     89118840                       # number of WritebackDirty hits (Count)
system.l2.WritebackDirty.hits::total         89118840                       # number of WritebackDirty hits (Count)
system.l2.WritebackDirty.accesses::writebacks     89118840                       # number of WritebackDirty accesses(hits+misses) (Count)
system.l2.WritebackDirty.accesses::total     89118840                       # number of WritebackDirty accesses(hits+misses) (Count)
system.l2.power_state.pwrStateResidencyTicks::UNDEFINED 8365795148764                       # Cumulative time (in ticks) in various power states (Tick)
system.l2.tags.tagsInUse                 32744.328576                       # Average ticks per tags in use ((Tick/Count))
system.l2.tags.totalRefs                    273821142                       # Total number of references to valid blocks. (Count)
system.l2.tags.sampledRefs                   14015889                       # Sample count of references to valid blocks. (Count)
system.l2.tags.avgRefs                      19.536480                       # Average number of references to valid blocks. ((Count/Count))
system.l2.tags.warmupTick                      430000                       # The tick when the warmup percentage was hit. (Tick)
system.l2.tags.occupancies::writebacks      30.724266                       # Average occupied blocks per tick, per requestor ((Count/Tick))
system.l2.tags.occupancies::cpu.inst        23.577963                       # Average occupied blocks per tick, per requestor ((Count/Tick))
system.l2.tags.occupancies::cpu.data     32690.026348                       # Average occupied blocks per tick, per requestor ((Count/Tick))
system.l2.tags.avgOccs::writebacks           0.000938                       # Average percentage of cache occupancy ((Ratio/Tick))
system.l2.tags.avgOccs::cpu.inst             0.000720                       # Average percentage of cache occupancy ((Ratio/Tick))
system.l2.tags.avgOccs::cpu.data             0.997620                       # Average percentage of cache occupancy ((Ratio/Tick))
system.l2.tags.avgOccs::total                0.999278                       # Average percentage of cache occupancy ((Ratio/Tick))
system.l2.tags.occupanciesTaskId::1024          32768                       # Occupied blocks per task id (Count)
system.l2.tags.ageTaskId_1024::0                   36                       # Occupied blocks per task id, per block age (Count)
system.l2.tags.ageTaskId_1024::1                  287                       # Occupied blocks per task id, per block age (Count)
system.l2.tags.ageTaskId_1024::2                  638                       # Occupied blocks per task id, per block age (Count)
system.l2.tags.ageTaskId_1024::3                 8913                       # Occupied blocks per task id, per block age (Count)
system.l2.tags.ageTaskId_1024::4                22894                       # Occupied blocks per task id, per block age (Count)
system.l2.tags.ratioOccsTaskId::1024                1                       # Ratio of occupied blocks and all blocks, per task id (Ratio)
system.l2.tags.tagAccesses                 2204587209                       # Number of tag accesses (Count)
system.l2.tags.dataAccesses                2204587209                       # Number of data accesses (Count)
system.l2.tags.power_state.pwrStateResidencyTicks::UNDEFINED 8365795148764                       # Cumulative time (in ticks) in various power states (Tick)
system.mem_ctrls.bytesRead::cpu.inst           963136                       # Number of bytes read from this memory (Byte)
system.mem_ctrls.bytesRead::cpu.data        894791808                       # Number of bytes read from this memory (Byte)
system.mem_ctrls.bytesRead::total           895754944                       # Number of bytes read from this memory (Byte)
system.mem_ctrls.bytesInstRead::cpu.inst       963136                       # Number of instructions bytes read from this memory (Byte)
system.mem_ctrls.bytesInstRead::total          963136                       # Number of instructions bytes read from this memory (Byte)
system.mem_ctrls.bytesWritten::writebacks    125608960                       # Number of bytes written to this memory (Byte)
system.mem_ctrls.bytesWritten::total        125608960                       # Number of bytes written to this memory (Byte)
system.mem_ctrls.numReads::cpu.inst             15049                       # Number of read requests responded to by this memory (Count)
system.mem_ctrls.numReads::cpu.data          13981122                       # Number of read requests responded to by this memory (Count)
system.mem_ctrls.numReads::total             13996171                       # Number of read requests responded to by this memory (Count)
system.mem_ctrls.numWrites::writebacks        1962640                       # Number of write requests responded to by this memory (Count)
system.mem_ctrls.numWrites::total             1962640                       # Number of write requests responded to by this memory (Count)
system.mem_ctrls.bwRead::cpu.inst              115128                       # Total read bandwidth from this memory ((Byte/Second))
system.mem_ctrls.bwRead::cpu.data           106958369                       # Total read bandwidth from this memory ((Byte/Second))
system.mem_ctrls.bwRead::total              107073497                       # Total read bandwidth from this memory ((Byte/Second))
system.mem_ctrls.bwInstRead::cpu.inst          115128                       # Instruction read bandwidth from this memory ((Byte/Second))
system.mem_ctrls.bwInstRead::total             115128                       # Instruction read bandwidth from this memory ((Byte/Second))
system.mem_ctrls.bwWrite::writebacks         15014587                       # Write bandwidth from this memory ((Byte/Second))
system.mem_ctrls.bwWrite::total              15014587                       # Write bandwidth from this memory ((Byte/Second))
system.mem_ctrls.bwTotal::writebacks         15014587                       # Total bandwidth to/from this memory ((Byte/Second))
system.mem_ctrls.bwTotal::cpu.inst             115128                       # Total bandwidth to/from this memory ((Byte/Second))
system.mem_ctrls.bwTotal::cpu.data          106958369                       # Total bandwidth to/from this memory ((Byte/Second))
system.mem_ctrls.bwTotal::total             122088084                       # Total bandwidth to/from this memory ((Byte/Second))
system.mem_ctrls.power_state.pwrStateResidencyTicks::UNDEFINED 8365795148764                       # Cumulative time (in ticks) in various power states (Tick)
system.membus.transDist::ReadResp            12456811                       # Transaction distribution (Count)
system.membus.transDist::WritebackDirty       1962640                       # Transaction distribution (Count)
system.membus.transDist::CleanEvict          12000239                       # Transaction distribution (Count)
system.membus.transDist::UpgradeReq                 1                       # Transaction distribution (Count)
system.membus.transDist::ReadExReq            1539360                       # Transaction distribution (Count)
system.membus.transDist::ReadExResp           1539360                       # Transaction distribution (Count)
system.membus.transDist::ReadSharedReq       12456811                       # Transaction distribution (Count)
system.membus.pktCount_system.l2.mem_side_port::system.mem_ctrls.port     41955222                       # Packet count per connected requestor and responder (Count)
system.membus.pktCount_system.l2.mem_side_port::total     41955222                       # Packet count per connected requestor and responder (Count)
system.membus.pktCount::total                41955222                       # Packet count per connected requestor and responder (Count)
system.membus.pktSize_system.l2.mem_side_port::system.mem_ctrls.port   1021363904                       # Cumulative packet size per connected requestor and responder (Byte)
system.membus.pktSize_system.l2.mem_side_port::total   1021363904                       # Cumulative packet size per connected requestor and responder (Byte)
system.membus.pktSize::total               1021363904                       # Cumulative packet size per connected requestor and responder (Byte)
system.membus.snoops                                0                       # Total snoops (Count)
system.membus.snoopTraffic                          0                       # Total snoop traffic (Byte)
system.membus.snoopFanout::samples           13996172                       # Request fanout histogram (Count)
system.membus.snoopFanout::mean                     0                       # Request fanout histogram (Count)
system.membus.snoopFanout::stdev                    0                       # Request fanout histogram (Count)
system.membus.snoopFanout::underflows               0      0.00%      0.00% # Request fanout histogram (Count)
system.membus.snoopFanout::0                 13996172    100.00%    100.00% # Request fanout histogram (Count)
system.membus.snoopFanout::1                        0      0.00%    100.00% # Request fanout histogram (Count)
system.membus.snoopFanout::overflows                0      0.00%    100.00% # Request fanout histogram (Count)
system.membus.snoopFanout::min_value                0                       # Request fanout histogram (Count)
system.membus.snoopFanout::max_value                0                       # Request fanout histogram (Count)
system.membus.snoopFanout::total             13996172                       # Request fanout histogram (Count)
system.membus.power_state.pwrStateResidencyTicks::UNDEFINED 8365795148764                       # Cumulative time (in ticks) in various power states (Tick)
system.membus.reqLayer2.occupancy        113694961544                       # Layer occupancy (ticks) (Tick)
system.membus.reqLayer2.utilization               0.0                       # Layer utilization (Ratio)
system.membus.respLayer1.occupancy       183893119479                       # Layer occupancy (ticks) (Tick)
system.membus.respLayer1.utilization              0.0                       # Layer utilization (Ratio)
system.membus.snoop_filter.totRequests       27959051                       # Total number of requests made to the snoop filter. (Count)
system.membus.snoop_filter.hitSingleRequests     13963197                       # Number of requests hitting in the snoop filter with a single holder of the requested data. (Count)
system.membus.snoop_filter.hitMultiRequests            0                       # Number of requests hitting in the snoop filter with multiple (>1) holders of the requested data. (Count)
system.membus.snoop_filter.totSnoops                0                       # Total number of snoops made to the snoop filter. (Count)
system.membus.snoop_filter.hitSingleSnoops            0                       # Number of snoops hitting in the snoop filter with a single holder of the requested data. (Count)
system.membus.snoop_filter.hitMultiSnoops            0                       # Number of snoops hitting in the snoop filter with multiple (>1) holders of the requested data. (Count)
system.tol2bus.transDist::ReadResp          133323739                       # Transaction distribution (Count)
system.tol2bus.transDist::WritebackDirty     91081480                       # Transaction distribution (Count)
system.tol2bus.transDist::WritebackClean        42371                       # Transaction distribution (Count)
system.tol2bus.transDist::CleanEvict         59769690                       # Transaction distribution (Count)
system.tol2bus.transDist::UpgradeReq                4                       # Transaction distribution (Count)
system.tol2bus.transDist::UpgradeResp               4                       # Transaction distribution (Count)
system.tol2bus.transDist::ReadExReq           3587708                       # Transaction distribution (Count)
system.tol2bus.transDist::ReadExResp          3587708                       # Transaction distribution (Count)
system.tol2bus.transDist::ReadCleanReq          42887                       # Transaction distribution (Count)
system.tol2bus.transDist::ReadSharedReq     133280853                       # Transaction distribution (Count)
system.tol2bus.pktCount_system.cpu.icache.mem_side_port::system.l2.cpu_side_port       128138                       # Packet count per connected requestor and responder (Count)
system.tol2bus.pktCount_system.cpu.dcache.mem_side_port::system.l2.cpu_side_port    410605179                       # Packet count per connected requestor and responder (Count)
system.tol2bus.pktCount::total              410733317                       # Packet count per connected requestor and responder (Count)
system.tol2bus.pktSize_system.cpu.icache.mem_side_port::system.l2.cpu_side_port      5456064                       # Cumulative packet size per connected requestor and responder (Byte)
system.tol2bus.pktSize_system.cpu.dcache.mem_side_port::system.l2.cpu_side_port  14463193664                       # Cumulative packet size per connected requestor and responder (Byte)
system.tol2bus.pktSize::total             14468649728                       # Cumulative packet size per connected requestor and responder (Byte)
system.tol2bus.snoops                        13983127                       # Total snoops (Count)
system.tol2bus.snoopTraffic                 125609344                       # Total snoop traffic (Byte)
system.tol2bus.snoopFanout::samples         150894573                       # Request fanout histogram (Count)
system.tol2bus.snoopFanout::mean             0.000139                       # Request fanout histogram (Count)
system.tol2bus.snoopFanout::stdev            0.011793                       # Request fanout histogram (Count)
system.tol2bus.snoopFanout::underflows              0      0.00%      0.00% # Request fanout histogram (Count)
system.tol2bus.snoopFanout::0               150873584     99.99%     99.99% # Request fanout histogram (Count)
system.tol2bus.snoopFanout::1                   20989      0.01%    100.00% # Request fanout histogram (Count)
system.tol2bus.snoopFanout::2                       0      0.00%    100.00% # Request fanout histogram (Count)
system.tol2bus.snoopFanout::3                       0      0.00%    100.00% # Request fanout histogram (Count)
system.tol2bus.snoopFanout::4                       0      0.00%    100.00% # Request fanout histogram (Count)
system.tol2bus.snoopFanout::overflows               0      0.00%    100.00% # Request fanout histogram (Count)
system.tol2bus.snoopFanout::min_value               0                       # Request fanout histogram (Count)
system.tol2bus.snoopFanout::max_value               1                       # Request fanout histogram (Count)
system.tol2bus.snoopFanout::total           150894573                       # Request fanout histogram (Count)
system.tol2bus.power_state.pwrStateResidencyTicks::UNDEFINED 8365795148764                       # Cumulative time (in ticks) in various power states (Tick)
system.tol2bus.reqLayer0.occupancy       141521164022                       # Layer occupancy (ticks) (Tick)
system.tol2bus.reqLayer0.utilization              0.0                       # Layer utilization (Ratio)
system.tol2bus.respLayer0.occupancy          40272450                       # Layer occupancy (ticks) (Tick)
system.tol2bus.respLayer0.utilization             0.0                       # Layer utilization (Ratio)
system.tol2bus.respLayer1.occupancy      128519583151                       # Layer occupancy (ticks) (Tick)
system.tol2bus.respLayer1.utilization             0.0                       # Layer utilization (Ratio)
system.tol2bus.snoop_filter.totRequests     273821872                       # Total number of requests made to the snoop filter. (Count)
system.tol2bus.snoop_filter.hitSingleRequests    136910423                       # Number of requests hitting in the snoop filter with a single holder of the requested data. (Count)
system.tol2bus.snoop_filter.hitMultiRequests          468                       # Number of requests hitting in the snoop filter with multiple (>1) holders of the requested data. (Count)
system.tol2bus.snoop_filter.totSnoops           20518                       # Total number of snoops made to the snoop filter. (Count)
system.tol2bus.snoop_filter.hitSingleSnoops        20518                       # Number of snoops hitting in the snoop filter with a single holder of the requested data. (Count)
system.tol2bus.snoop_filter.hitMultiSnoops            0                       # Number of snoops hitting in the snoop filter with multiple (>1) holders of the requested data. (Count)
system.voltage_domain.voltage                       1                       # Voltage in Volts (Volt)
system.workload.inst.arm                            0                       # number of arm instructions executed (Count)
system.workload.inst.quiesce                        0                       # number of quiesce instructions executed (Count)

---------- End Simulation Statistics   ----------
