
---------- Begin Simulation Statistics ----------
simSeconds                                   2.164729                       # Number of seconds simulated (Second)
simTicks                                 2164728913721                       # Number of ticks simulated (Tick)
finalTick                                2164728913721                       # Number of ticks from beginning of simulation (restored from checkpoints and never reset) (Tick)
simFreq                                  1000000000000                       # The number of ticks per simulated second ((Tick/Second))
hostSeconds                                  18779.42                       # Real time elapsed on the host (Second)
hostTickRate                                115271328                       # The number of ticks simulated per host second (ticks/s) ((Tick/Second))
hostMemory                                    3105288                       # Number of bytes of host memory used (Byte)
simInsts                                   4364092100                       # Number of instructions simulated (Count)
simOps                                     7263421414                       # Number of ops (including micro ops) simulated (Count)
hostInstRate                                   232387                       # Simulator instruction rate (inst/s) ((Count/Second))
hostOpRate                                     386776                       # Simulator op (including micro ops) rate (op/s) ((Count/Second))
system.clk_domain.clock                          2500                       # Clock period in ticks (Tick)
system.cpu.numCycles                       6916066818                       # Number of cpu cycles simulated (Cycle)
system.cpu.cpi                               1.584766                       # CPI: cycles per instruction (core level) ((Cycle/Count))
system.cpu.ipc                               0.631008                       # IPC: instructions per cycle (core level) ((Count/Cycle))
system.cpu.numWorkItemsStarted                      0                       # Number of work items this cpu started (Count)
system.cpu.numWorkItemsCompleted                    0                       # Number of work items this cpu completed (Count)
system.cpu.instsAdded                      7278037445                       # Number of instructions added to the IQ (excludes non-spec) (Count)
system.cpu.nonSpecInstsAdded                    12947                       # Number of non-speculative instructions added to the IQ (Count)
system.cpu.instsIssued                     7273688228                       # Number of instructions issued (Count)
system.cpu.squashedInstsIssued                  16115                       # Number of squashed instructions issued (Count)
system.cpu.squashedInstsExamined             14628972                       # Number of squashed instructions iterated over during squash; mainly for profiling (Count)
system.cpu.squashedOperandsExamined          19663499                       # Number of squashed operands that are examined and possibly removed from graph (Count)
system.cpu.squashedNonSpecRemoved                5048                       # Number of squashed non-spec instructions that were removed (Count)
system.cpu.numIssuedDist::samples          6870192876                       # Number of insts issued each cycle (Count)
system.cpu.numIssuedDist::mean               1.058731                       # Number of insts issued each cycle (Count)
system.cpu.numIssuedDist::stdev              1.746121                       # Number of insts issued each cycle (Count)
system.cpu.numIssuedDist::underflows                0      0.00%      0.00% # Number of insts issued each cycle (Count)
system.cpu.numIssuedDist::0                4335665167     63.11%     63.11% # Number of insts issued each cycle (Count)
system.cpu.numIssuedDist::1                 742074728     10.80%     73.91% # Number of insts issued each cycle (Count)
system.cpu.numIssuedDist::2                 526191351      7.66%     81.57% # Number of insts issued each cycle (Count)
system.cpu.numIssuedDist::3                 425273981      6.19%     87.76% # Number of insts issued each cycle (Count)
system.cpu.numIssuedDist::4                 359514255      5.23%     92.99% # Number of insts issued each cycle (Count)
system.cpu.numIssuedDist::5                 230713289      3.36%     96.35% # Number of insts issued each cycle (Count)
system.cpu.numIssuedDist::6                 159542315      2.32%     98.67% # Number of insts issued each cycle (Count)
system.cpu.numIssuedDist::7                  75210820      1.09%     99.77% # Number of insts issued each cycle (Count)
system.cpu.numIssuedDist::8                  16006970      0.23%    100.00% # Number of insts issued each cycle (Count)
system.cpu.numIssuedDist::overflows                 0      0.00%    100.00% # Number of insts issued each cycle (Count)
system.cpu.numIssuedDist::min_value                 0                       # Number of insts issued each cycle (Count)
system.cpu.numIssuedDist::max_value                 8                       # Number of insts issued each cycle (Count)
system.cpu.numIssuedDist::total            6870192876                       # Number of insts issued each cycle (Count)
system.cpu.statFuBusy::No_OpClass                   0      0.00%      0.00% # attempts to use FU when none available (Count)
system.cpu.statFuBusy::IntAlu                 2585778      5.14%      5.14% # attempts to use FU when none available (Count)
system.cpu.statFuBusy::IntMult                      0      0.00%      5.14% # attempts to use FU when none available (Count)
system.cpu.statFuBusy::IntDiv                       0      0.00%      5.14% # attempts to use FU when none available (Count)
system.cpu.statFuBusy::FloatAdd                     0      0.00%      5.14% # attempts to use FU when none available (Count)
system.cpu.statFuBusy::FloatCmp                     0      0.00%      5.14% # attempts to use FU when none available (Count)
system.cpu.statFuBusy::FloatCvt                     0      0.00%      5.14% # attempts to use FU when none available (Count)
system.cpu.statFuBusy::FloatMult                    0      0.00%      5.14% # attempts to use FU when none available (Count)
system.cpu.statFuBusy::FloatMultAcc                 0      0.00%      5.14% # attempts to use FU when none available (Count)
system.cpu.statFuBusy::FloatDiv                     0      0.00%      5.14% # attempts to use FU when none available (Count)
system.cpu.statFuBusy::FloatMisc                    0      0.00%      5.14% # attempts to use FU when none available (Count)
system.cpu.statFuBusy::FloatSqrt                    0      0.00%      5.14% # attempts to use FU when none available (Count)
system.cpu.statFuBusy::SimdAdd                      0      0.00%      5.14% # attempts to use FU when none available (Count)
system.cpu.statFuBusy::SimdAddAcc                   0      0.00%      5.14% # attempts to use FU when none available (Count)
system.cpu.statFuBusy::SimdAlu                     70      0.00%      5.14% # attempts to use FU when none available (Count)
system.cpu.statFuBusy::SimdCmp                      0      0.00%      5.14% # attempts to use FU when none available (Count)
system.cpu.statFuBusy::SimdCvt                     13      0.00%      5.14% # attempts to use FU when none available (Count)
system.cpu.statFuBusy::SimdMisc                     0      0.00%      5.14% # attempts to use FU when none available (Count)
system.cpu.statFuBusy::SimdMult                     0      0.00%      5.14% # attempts to use FU when none available (Count)
system.cpu.statFuBusy::SimdMultAcc                  0      0.00%      5.14% # attempts to use FU when none available (Count)
system.cpu.statFuBusy::SimdMatMultAcc               0      0.00%      5.14% # attempts to use FU when none available (Count)
system.cpu.statFuBusy::SimdShift                    0      0.00%      5.14% # attempts to use FU when none available (Count)
system.cpu.statFuBusy::SimdShiftAcc                 0      0.00%      5.14% # attempts to use FU when none available (Count)
system.cpu.statFuBusy::SimdDiv                      0      0.00%      5.14% # attempts to use FU when none available (Count)
system.cpu.statFuBusy::SimdSqrt                     0      0.00%      5.14% # attempts to use FU when none available (Count)
system.cpu.statFuBusy::SimdFloatAdd                 0      0.00%      5.14% # attempts to use FU when none available (Count)
system.cpu.statFuBusy::SimdFloatAlu                 0      0.00%      5.14% # attempts to use FU when none available (Count)
system.cpu.statFuBusy::SimdFloatCmp                 0      0.00%      5.14% # attempts to use FU when none available (Count)
system.cpu.statFuBusy::SimdFloatCvt                 0      0.00%      5.14% # attempts to use FU when none available (Count)
system.cpu.statFuBusy::SimdFloatDiv                 0      0.00%      5.14% # attempts to use FU when none available (Count)
system.cpu.statFuBusy::SimdFloatMisc                0      0.00%      5.14% # attempts to use FU when none available (Count)
system.cpu.statFuBusy::SimdFloatMult                0      0.00%      5.14% # attempts to use FU when none available (Count)
system.cpu.statFuBusy::SimdFloatMultAcc             0      0.00%      5.14% # attempts to use FU when none available (Count)
system.cpu.statFuBusy::SimdFloatMatMultAcc            0      0.00%      5.14% # attempts to use FU when none available (Count)
system.cpu.statFuBusy::SimdFloatSqrt                0      0.00%      5.14% # attempts to use FU when none available (Count)
system.cpu.statFuBusy::SimdReduceAdd                0      0.00%      5.14% # attempts to use FU when none available (Count)
system.cpu.statFuBusy::SimdReduceAlu                0      0.00%      5.14% # attempts to use FU when none available (Count)
system.cpu.statFuBusy::SimdReduceCmp                0      0.00%      5.14% # attempts to use FU when none available (Count)
system.cpu.statFuBusy::SimdFloatReduceAdd            0      0.00%      5.14% # attempts to use FU when none available (Count)
system.cpu.statFuBusy::SimdFloatReduceCmp            0      0.00%      5.14% # attempts to use FU when none available (Count)
system.cpu.statFuBusy::SimdAes                      0      0.00%      5.14% # attempts to use FU when none available (Count)
system.cpu.statFuBusy::SimdAesMix                   0      0.00%      5.14% # attempts to use FU when none available (Count)
system.cpu.statFuBusy::SimdSha1Hash                 0      0.00%      5.14% # attempts to use FU when none available (Count)
system.cpu.statFuBusy::SimdSha1Hash2                0      0.00%      5.14% # attempts to use FU when none available (Count)
system.cpu.statFuBusy::SimdSha256Hash               0      0.00%      5.14% # attempts to use FU when none available (Count)
system.cpu.statFuBusy::SimdSha256Hash2              0      0.00%      5.14% # attempts to use FU when none available (Count)
system.cpu.statFuBusy::SimdShaSigma2                0      0.00%      5.14% # attempts to use FU when none available (Count)
system.cpu.statFuBusy::SimdShaSigma3                0      0.00%      5.14% # attempts to use FU when none available (Count)
system.cpu.statFuBusy::SimdPredAlu                  0      0.00%      5.14% # attempts to use FU when none available (Count)
system.cpu.statFuBusy::Matrix                       0      0.00%      5.14% # attempts to use FU when none available (Count)
system.cpu.statFuBusy::MatrixMov                    0      0.00%      5.14% # attempts to use FU when none available (Count)
system.cpu.statFuBusy::MatrixOP                     0      0.00%      5.14% # attempts to use FU when none available (Count)
system.cpu.statFuBusy::MemRead               35597014     70.72%     75.86% # attempts to use FU when none available (Count)
system.cpu.statFuBusy::MemWrite              12146748     24.13%     99.99% # attempts to use FU when none available (Count)
system.cpu.statFuBusy::FloatMemRead              4382      0.01%    100.00% # attempts to use FU when none available (Count)
system.cpu.statFuBusy::FloatMemWrite              942      0.00%    100.00% # attempts to use FU when none available (Count)
system.cpu.statFuBusy::IprAccess                    0      0.00%    100.00% # attempts to use FU when none available (Count)
system.cpu.statFuBusy::InstPrefetch                 0      0.00%    100.00% # attempts to use FU when none available (Count)
system.cpu.statFuBusy::SimdUnitStrideLoad            0      0.00%    100.00% # attempts to use FU when none available (Count)
system.cpu.statFuBusy::SimdUnitStrideStore            0      0.00%    100.00% # attempts to use FU when none available (Count)
system.cpu.statFuBusy::SimdUnitStrideMaskLoad            0      0.00%    100.00% # attempts to use FU when none available (Count)
system.cpu.statFuBusy::SimdUnitStrideMaskStore            0      0.00%    100.00% # attempts to use FU when none available (Count)
system.cpu.statFuBusy::SimdStridedLoad              0      0.00%    100.00% # attempts to use FU when none available (Count)
system.cpu.statFuBusy::SimdStridedStore             0      0.00%    100.00% # attempts to use FU when none available (Count)
system.cpu.statFuBusy::SimdIndexedLoad              0      0.00%    100.00% # attempts to use FU when none available (Count)
system.cpu.statFuBusy::SimdIndexedStore             0      0.00%    100.00% # attempts to use FU when none available (Count)
system.cpu.statFuBusy::SimdWholeRegisterLoad            0      0.00%    100.00% # attempts to use FU when none available (Count)
system.cpu.statFuBusy::SimdWholeRegisterStore            0      0.00%    100.00% # attempts to use FU when none available (Count)
system.cpu.statFuBusy::SimdUnitStrideFaultOnlyFirstLoad            0      0.00%    100.00% # attempts to use FU when none available (Count)
system.cpu.statFuBusy::SimdUnitStrideSegmentedLoad            0      0.00%    100.00% # attempts to use FU when none available (Count)
system.cpu.statFuBusy::SimdUnitStrideSegmentedStore            0      0.00%    100.00% # attempts to use FU when none available (Count)
system.cpu.statFuBusy::SimdExt                      0      0.00%    100.00% # attempts to use FU when none available (Count)
system.cpu.statFuBusy::SimdFloatExt                 0      0.00%    100.00% # attempts to use FU when none available (Count)
system.cpu.statFuBusy::SimdConfig                   0      0.00%    100.00% # attempts to use FU when none available (Count)
system.cpu.statIssuedInstType_0::No_OpClass       137158      0.00%      0.00% # Number of instructions issued per FU type, per thread (Count)
system.cpu.statIssuedInstType_0::IntAlu    4258424132     58.55%     58.55% # Number of instructions issued per FU type, per thread (Count)
system.cpu.statIssuedInstType_0::IntMult     24508136      0.34%     58.88% # Number of instructions issued per FU type, per thread (Count)
system.cpu.statIssuedInstType_0::IntDiv          4755      0.00%     58.88% # Number of instructions issued per FU type, per thread (Count)
system.cpu.statIssuedInstType_0::FloatAdd    143604197      1.97%     60.86% # Number of instructions issued per FU type, per thread (Count)
system.cpu.statIssuedInstType_0::FloatCmp            0      0.00%     60.86% # Number of instructions issued per FU type, per thread (Count)
system.cpu.statIssuedInstType_0::FloatCvt         1224      0.00%     60.86% # Number of instructions issued per FU type, per thread (Count)
system.cpu.statIssuedInstType_0::FloatMult            0      0.00%     60.86% # Number of instructions issued per FU type, per thread (Count)
system.cpu.statIssuedInstType_0::FloatMultAcc            0      0.00%     60.86% # Number of instructions issued per FU type, per thread (Count)
system.cpu.statIssuedInstType_0::FloatDiv            0      0.00%     60.86% # Number of instructions issued per FU type, per thread (Count)
system.cpu.statIssuedInstType_0::FloatMisc            0      0.00%     60.86% # Number of instructions issued per FU type, per thread (Count)
system.cpu.statIssuedInstType_0::FloatSqrt            0      0.00%     60.86% # Number of instructions issued per FU type, per thread (Count)
system.cpu.statIssuedInstType_0::SimdAdd          116      0.00%     60.86% # Number of instructions issued per FU type, per thread (Count)
system.cpu.statIssuedInstType_0::SimdAddAcc            0      0.00%     60.86% # Number of instructions issued per FU type, per thread (Count)
system.cpu.statIssuedInstType_0::SimdAlu     48322555      0.66%     61.52% # Number of instructions issued per FU type, per thread (Count)
system.cpu.statIssuedInstType_0::SimdCmp            0      0.00%     61.52% # Number of instructions issued per FU type, per thread (Count)
system.cpu.statIssuedInstType_0::SimdCvt         1612      0.00%     61.52% # Number of instructions issued per FU type, per thread (Count)
system.cpu.statIssuedInstType_0::SimdMisc     47917211      0.66%     62.18% # Number of instructions issued per FU type, per thread (Count)
system.cpu.statIssuedInstType_0::SimdMult            0      0.00%     62.18% # Number of instructions issued per FU type, per thread (Count)
system.cpu.statIssuedInstType_0::SimdMultAcc            0      0.00%     62.18% # Number of instructions issued per FU type, per thread (Count)
system.cpu.statIssuedInstType_0::SimdMatMultAcc            0      0.00%     62.18% # Number of instructions issued per FU type, per thread (Count)
system.cpu.statIssuedInstType_0::SimdShift            0      0.00%     62.18% # Number of instructions issued per FU type, per thread (Count)
system.cpu.statIssuedInstType_0::SimdShiftAcc            0      0.00%     62.18% # Number of instructions issued per FU type, per thread (Count)
system.cpu.statIssuedInstType_0::SimdDiv            0      0.00%     62.18% # Number of instructions issued per FU type, per thread (Count)
system.cpu.statIssuedInstType_0::SimdSqrt            0      0.00%     62.18% # Number of instructions issued per FU type, per thread (Count)
system.cpu.statIssuedInstType_0::SimdFloatAdd     24052134      0.33%     62.51% # Number of instructions issued per FU type, per thread (Count)
system.cpu.statIssuedInstType_0::SimdFloatAlu            0      0.00%     62.51% # Number of instructions issued per FU type, per thread (Count)
system.cpu.statIssuedInstType_0::SimdFloatCmp            0      0.00%     62.51% # Number of instructions issued per FU type, per thread (Count)
system.cpu.statIssuedInstType_0::SimdFloatCvt     71558927      0.98%     63.50% # Number of instructions issued per FU type, per thread (Count)
system.cpu.statIssuedInstType_0::SimdFloatDiv       364093      0.01%     63.50% # Number of instructions issued per FU type, per thread (Count)
system.cpu.statIssuedInstType_0::SimdFloatMisc            0      0.00%     63.50% # Number of instructions issued per FU type, per thread (Count)
system.cpu.statIssuedInstType_0::SimdFloatMult     23687397      0.33%     63.83% # Number of instructions issued per FU type, per thread (Count)
system.cpu.statIssuedInstType_0::SimdFloatMultAcc            0      0.00%     63.83% # Number of instructions issued per FU type, per thread (Count)
system.cpu.statIssuedInstType_0::SimdFloatMatMultAcc            0      0.00%     63.83% # Number of instructions issued per FU type, per thread (Count)
system.cpu.statIssuedInstType_0::SimdFloatSqrt            0      0.00%     63.83% # Number of instructions issued per FU type, per thread (Count)
system.cpu.statIssuedInstType_0::SimdReduceAdd            0      0.00%     63.83% # Number of instructions issued per FU type, per thread (Count)
system.cpu.statIssuedInstType_0::SimdReduceAlu            0      0.00%     63.83% # Number of instructions issued per FU type, per thread (Count)
system.cpu.statIssuedInstType_0::SimdReduceCmp            0      0.00%     63.83% # Number of instructions issued per FU type, per thread (Count)
system.cpu.statIssuedInstType_0::SimdFloatReduceAdd            0      0.00%     63.83% # Number of instructions issued per FU type, per thread (Count)
system.cpu.statIssuedInstType_0::SimdFloatReduceCmp            0      0.00%     63.83% # Number of instructions issued per FU type, per thread (Count)
system.cpu.statIssuedInstType_0::SimdAes            0      0.00%     63.83% # Number of instructions issued per FU type, per thread (Count)
system.cpu.statIssuedInstType_0::SimdAesMix            0      0.00%     63.83% # Number of instructions issued per FU type, per thread (Count)
system.cpu.statIssuedInstType_0::SimdSha1Hash            0      0.00%     63.83% # Number of instructions issued per FU type, per thread (Count)
system.cpu.statIssuedInstType_0::SimdSha1Hash2            0      0.00%     63.83% # Number of instructions issued per FU type, per thread (Count)
system.cpu.statIssuedInstType_0::SimdSha256Hash            0      0.00%     63.83% # Number of instructions issued per FU type, per thread (Count)
system.cpu.statIssuedInstType_0::SimdSha256Hash2            0      0.00%     63.83% # Number of instructions issued per FU type, per thread (Count)
system.cpu.statIssuedInstType_0::SimdShaSigma2            0      0.00%     63.83% # Number of instructions issued per FU type, per thread (Count)
system.cpu.statIssuedInstType_0::SimdShaSigma3            0      0.00%     63.83% # Number of instructions issued per FU type, per thread (Count)
system.cpu.statIssuedInstType_0::SimdPredAlu            0      0.00%     63.83% # Number of instructions issued per FU type, per thread (Count)
system.cpu.statIssuedInstType_0::Matrix             0      0.00%     63.83% # Number of instructions issued per FU type, per thread (Count)
system.cpu.statIssuedInstType_0::MatrixMov            0      0.00%     63.83% # Number of instructions issued per FU type, per thread (Count)
system.cpu.statIssuedInstType_0::MatrixOP            0      0.00%     63.83% # Number of instructions issued per FU type, per thread (Count)
system.cpu.statIssuedInstType_0::MemRead   1484586004     20.41%     84.24% # Number of instructions issued per FU type, per thread (Count)
system.cpu.statIssuedInstType_0::MemWrite    930637386     12.79%     97.03% # Number of instructions issued per FU type, per thread (Count)
system.cpu.statIssuedInstType_0::FloatMemRead    167405394      2.30%     99.33% # Number of instructions issued per FU type, per thread (Count)
system.cpu.statIssuedInstType_0::FloatMemWrite     48475797      0.67%    100.00% # Number of instructions issued per FU type, per thread (Count)
system.cpu.statIssuedInstType_0::IprAccess            0      0.00%    100.00% # Number of instructions issued per FU type, per thread (Count)
system.cpu.statIssuedInstType_0::InstPrefetch            0      0.00%    100.00% # Number of instructions issued per FU type, per thread (Count)
system.cpu.statIssuedInstType_0::SimdUnitStrideLoad            0      0.00%    100.00% # Number of instructions issued per FU type, per thread (Count)
system.cpu.statIssuedInstType_0::SimdUnitStrideStore            0      0.00%    100.00% # Number of instructions issued per FU type, per thread (Count)
system.cpu.statIssuedInstType_0::SimdUnitStrideMaskLoad            0      0.00%    100.00% # Number of instructions issued per FU type, per thread (Count)
system.cpu.statIssuedInstType_0::SimdUnitStrideMaskStore            0      0.00%    100.00% # Number of instructions issued per FU type, per thread (Count)
system.cpu.statIssuedInstType_0::SimdStridedLoad            0      0.00%    100.00% # Number of instructions issued per FU type, per thread (Count)
system.cpu.statIssuedInstType_0::SimdStridedStore            0      0.00%    100.00% # Number of instructions issued per FU type, per thread (Count)
system.cpu.statIssuedInstType_0::SimdIndexedLoad            0      0.00%    100.00% # Number of instructions issued per FU type, per thread (Count)
system.cpu.statIssuedInstType_0::SimdIndexedStore            0      0.00%    100.00% # Number of instructions issued per FU type, per thread (Count)
system.cpu.statIssuedInstType_0::SimdWholeRegisterLoad            0      0.00%    100.00% # Number of instructions issued per FU type, per thread (Count)
system.cpu.statIssuedInstType_0::SimdWholeRegisterStore            0      0.00%    100.00% # Number of instructions issued per FU type, per thread (Count)
system.cpu.statIssuedInstType_0::SimdUnitStrideFaultOnlyFirstLoad            0      0.00%    100.00% # Number of instructions issued per FU type, per thread (Count)
system.cpu.statIssuedInstType_0::SimdUnitStrideSegmentedLoad            0      0.00%    100.00% # Number of instructions issued per FU type, per thread (Count)
system.cpu.statIssuedInstType_0::SimdUnitStrideSegmentedStore            0      0.00%    100.00% # Number of instructions issued per FU type, per thread (Count)
system.cpu.statIssuedInstType_0::SimdExt            0      0.00%    100.00% # Number of instructions issued per FU type, per thread (Count)
system.cpu.statIssuedInstType_0::SimdFloatExt            0      0.00%    100.00% # Number of instructions issued per FU type, per thread (Count)
system.cpu.statIssuedInstType_0::SimdConfig            0      0.00%    100.00% # Number of instructions issued per FU type, per thread (Count)
system.cpu.statIssuedInstType_0::total     7273688228                       # Number of instructions issued per FU type, per thread (Count)
system.cpu.issueRate                         1.051709                       # Inst issue rate ((Count/Cycle))
system.cpu.fuBusy                            50334947                       # FU busy when requested (Count)
system.cpu.fuBusyRate                        0.006920                       # FU busy rate (busy events/executed inst) ((Count/Count))
system.cpu.intInstQueueReads              20317132263                       # Number of integer instruction queue reads (Count)
system.cpu.intInstQueueWrites              6716769050                       # Number of integer instruction queue writes (Count)
system.cpu.intInstQueueWakeupAccesses      6697357085                       # Number of integer instruction queue wakeup accesses (Count)
system.cpu.fpInstQueueReads                1150788131                       # Number of floating instruction queue reads (Count)
system.cpu.fpInstQueueWrites                576111447                       # Number of floating instruction queue writes (Count)
system.cpu.fpInstQueueWakeupAccesses        575350104                       # Number of floating instruction queue wakeup accesses (Count)
system.cpu.vecInstQueueReads                        0                       # Number of vector instruction queue reads (Count)
system.cpu.vecInstQueueWrites                       0                       # Number of vector instruction queue writes (Count)
system.cpu.vecInstQueueWakeupAccesses               0                       # Number of vector instruction queue wakeup accesses (Count)
system.cpu.intAluAccesses                  6748489260                       # Number of integer alu accesses (Count)
system.cpu.fpAluAccesses                    575396757                       # Number of floating point alu accesses (Count)
system.cpu.vecAluAccesses                           0                       # Number of vector alu accesses (Count)
system.cpu.numSquashedInsts                    782984                       # Number of squashed instructions skipped in execute (Count)
system.cpu.numSwp                                   0                       # Number of swp insts executed (Count)
system.cpu.timesIdled                            8074                       # Number of times that the entire CPU went into an idle state and unscheduled itself (Count)
system.cpu.idleCycles                        45873942                       # Total number of cycles that the CPU has spent unscheduled due to idling (Cycle)
system.cpu.MemDepUnit__0.insertedLoads     1653082473                       # Number of loads inserted to the mem dependence unit. (Count)
system.cpu.MemDepUnit__0.insertedStores     979681680                       # Number of stores inserted to the mem dependence unit. (Count)
system.cpu.MemDepUnit__0.conflictingLoads    807825528                       # Number of conflicting loads. (Count)
system.cpu.MemDepUnit__0.conflictingStores    235949520                       # Number of conflicting stores. (Count)
system.cpu.MemDepUnit__1.insertedLoads              0                       # Number of loads inserted to the mem dependence unit. (Count)
system.cpu.MemDepUnit__1.insertedStores             0                       # Number of stores inserted to the mem dependence unit. (Count)
system.cpu.MemDepUnit__1.conflictingLoads            0                       # Number of conflicting loads. (Count)
system.cpu.MemDepUnit__1.conflictingStores            0                       # Number of conflicting stores. (Count)
system.cpu.MemDepUnit__2.insertedLoads              0                       # Number of loads inserted to the mem dependence unit. (Count)
system.cpu.MemDepUnit__2.insertedStores             0                       # Number of stores inserted to the mem dependence unit. (Count)
system.cpu.MemDepUnit__2.conflictingLoads            0                       # Number of conflicting loads. (Count)
system.cpu.MemDepUnit__2.conflictingStores            0                       # Number of conflicting stores. (Count)
system.cpu.MemDepUnit__3.insertedLoads              0                       # Number of loads inserted to the mem dependence unit. (Count)
system.cpu.MemDepUnit__3.insertedStores             0                       # Number of stores inserted to the mem dependence unit. (Count)
system.cpu.MemDepUnit__3.conflictingLoads            0                       # Number of conflicting loads. (Count)
system.cpu.MemDepUnit__3.conflictingStores            0                       # Number of conflicting stores. (Count)
system.cpu.branchPred.lookups_0::NoBranch            0      0.00%      0.00% # Number of BP lookups (Count)
system.cpu.branchPred.lookups_0::Return     219618533     40.31%     40.31% # Number of BP lookups (Count)
system.cpu.branchPred.lookups_0::CallDirect    219566170     40.30%     80.60% # Number of BP lookups (Count)
system.cpu.branchPred.lookups_0::CallIndirect         3722      0.00%     80.60% # Number of BP lookups (Count)
system.cpu.branchPred.lookups_0::DirectCond    103760059     19.04%     99.64% # Number of BP lookups (Count)
system.cpu.branchPred.lookups_0::DirectUncond      1378239      0.25%     99.90% # Number of BP lookups (Count)
system.cpu.branchPred.lookups_0::IndirectCond            0      0.00%     99.90% # Number of BP lookups (Count)
system.cpu.branchPred.lookups_0::IndirectUncond       559981      0.10%    100.00% # Number of BP lookups (Count)
system.cpu.branchPred.lookups_0::total      544886704                       # Number of BP lookups (Count)
system.cpu.branchPred.squashes_0::NoBranch            0      0.00%      0.00% # Number of branches that got squashed (completely removed) as an earlier branch was mispredicted. (Count)
system.cpu.branchPred.squashes_0::Return       686100     38.96%     38.96% # Number of branches that got squashed (completely removed) as an earlier branch was mispredicted. (Count)
system.cpu.branchPred.squashes_0::CallDirect       635928     36.11%     75.07% # Number of branches that got squashed (completely removed) as an earlier branch was mispredicted. (Count)
system.cpu.branchPred.squashes_0::CallIndirect         1527      0.09%     75.15% # Number of branches that got squashed (completely removed) as an earlier branch was mispredicted. (Count)
system.cpu.branchPred.squashes_0::DirectCond       373737     21.22%     96.38% # Number of branches that got squashed (completely removed) as an earlier branch was mispredicted. (Count)
system.cpu.branchPred.squashes_0::DirectUncond        59582      3.38%     99.76% # Number of branches that got squashed (completely removed) as an earlier branch was mispredicted. (Count)
system.cpu.branchPred.squashes_0::IndirectCond            0      0.00%     99.76% # Number of branches that got squashed (completely removed) as an earlier branch was mispredicted. (Count)
system.cpu.branchPred.squashes_0::IndirectUncond         4229      0.24%    100.00% # Number of branches that got squashed (completely removed) as an earlier branch was mispredicted. (Count)
system.cpu.branchPred.squashes_0::total       1761103                       # Number of branches that got squashed (completely removed) as an earlier branch was mispredicted. (Count)
system.cpu.branchPred.corrected_0::NoBranch            0      0.00%      0.00% # Number of branches that got corrected but not yet commited. Branches get corrected by decode or after execute. Also a branch misprediction can be detected out-of-order. Therefore, a corrected branch might not end up beeing committed in case an even earlier branch was mispredicted (Count)
system.cpu.branchPred.corrected_0::Return          779      0.52%      0.52% # Number of branches that got corrected but not yet commited. Branches get corrected by decode or after execute. Also a branch misprediction can be detected out-of-order. Therefore, a corrected branch might not end up beeing committed in case an even earlier branch was mispredicted (Count)
system.cpu.branchPred.corrected_0::CallDirect         9241      6.15%      6.66% # Number of branches that got corrected but not yet commited. Branches get corrected by decode or after execute. Also a branch misprediction can be detected out-of-order. Therefore, a corrected branch might not end up beeing committed in case an even earlier branch was mispredicted (Count)
system.cpu.branchPred.corrected_0::CallIndirect          322      0.21%      6.88% # Number of branches that got corrected but not yet commited. Branches get corrected by decode or after execute. Also a branch misprediction can be detected out-of-order. Therefore, a corrected branch might not end up beeing committed in case an even earlier branch was mispredicted (Count)
system.cpu.branchPred.corrected_0::DirectCond       137451     91.42%     98.30% # Number of branches that got corrected but not yet commited. Branches get corrected by decode or after execute. Also a branch misprediction can be detected out-of-order. Therefore, a corrected branch might not end up beeing committed in case an even earlier branch was mispredicted (Count)
system.cpu.branchPred.corrected_0::DirectUncond         2089      1.39%     99.69% # Number of branches that got corrected but not yet commited. Branches get corrected by decode or after execute. Also a branch misprediction can be detected out-of-order. Therefore, a corrected branch might not end up beeing committed in case an even earlier branch was mispredicted (Count)
system.cpu.branchPred.corrected_0::IndirectCond            0      0.00%     99.69% # Number of branches that got corrected but not yet commited. Branches get corrected by decode or after execute. Also a branch misprediction can be detected out-of-order. Therefore, a corrected branch might not end up beeing committed in case an even earlier branch was mispredicted (Count)
system.cpu.branchPred.corrected_0::IndirectUncond          461      0.31%    100.00% # Number of branches that got corrected but not yet commited. Branches get corrected by decode or after execute. Also a branch misprediction can be detected out-of-order. Therefore, a corrected branch might not end up beeing committed in case an even earlier branch was mispredicted (Count)
system.cpu.branchPred.corrected_0::total       150343                       # Number of branches that got corrected but not yet commited. Branches get corrected by decode or after execute. Also a branch misprediction can be detected out-of-order. Therefore, a corrected branch might not end up beeing committed in case an even earlier branch was mispredicted (Count)
system.cpu.branchPred.earlyResteers_0::NoBranch            0                       # Number of branches that got redirected after decode. (Count)
system.cpu.branchPred.earlyResteers_0::Return            0                       # Number of branches that got redirected after decode. (Count)
system.cpu.branchPred.earlyResteers_0::CallDirect            0                       # Number of branches that got redirected after decode. (Count)
system.cpu.branchPred.earlyResteers_0::CallIndirect            0                       # Number of branches that got redirected after decode. (Count)
system.cpu.branchPred.earlyResteers_0::DirectCond            0                       # Number of branches that got redirected after decode. (Count)
system.cpu.branchPred.earlyResteers_0::DirectUncond            0                       # Number of branches that got redirected after decode. (Count)
system.cpu.branchPred.earlyResteers_0::IndirectCond            0                       # Number of branches that got redirected after decode. (Count)
system.cpu.branchPred.earlyResteers_0::IndirectUncond            0                       # Number of branches that got redirected after decode. (Count)
system.cpu.branchPred.earlyResteers_0::total            0                       # Number of branches that got redirected after decode. (Count)
system.cpu.branchPred.committed_0::NoBranch            0      0.00%      0.00% # Number of branches finally committed  (Count)
system.cpu.branchPred.committed_0::Return    218932433     40.31%     40.31% # Number of branches finally committed  (Count)
system.cpu.branchPred.committed_0::CallDirect    218930242     40.31%     80.62% # Number of branches finally committed  (Count)
system.cpu.branchPred.committed_0::CallIndirect         2195      0.00%     80.62% # Number of branches finally committed  (Count)
system.cpu.branchPred.committed_0::DirectCond    103386321     19.04%     99.65% # Number of branches finally committed  (Count)
system.cpu.branchPred.committed_0::DirectUncond      1318657      0.24%     99.90% # Number of branches finally committed  (Count)
system.cpu.branchPred.committed_0::IndirectCond            0      0.00%     99.90% # Number of branches finally committed  (Count)
system.cpu.branchPred.committed_0::IndirectUncond       555752      0.10%    100.00% # Number of branches finally committed  (Count)
system.cpu.branchPred.committed_0::total    543125600                       # Number of branches finally committed  (Count)
system.cpu.branchPred.mispredicted_0::NoBranch            0      0.00%      0.00% # Number of committed branches that were mispredicted. (Count)
system.cpu.branchPred.mispredicted_0::Return          758      0.54%      0.54% # Number of committed branches that were mispredicted. (Count)
system.cpu.branchPred.mispredicted_0::CallDirect         6194      4.42%      4.96% # Number of committed branches that were mispredicted. (Count)
system.cpu.branchPred.mispredicted_0::CallIndirect          273      0.19%      5.16% # Number of committed branches that were mispredicted. (Count)
system.cpu.branchPred.mispredicted_0::DirectCond       131255     93.73%     98.89% # Number of committed branches that were mispredicted. (Count)
system.cpu.branchPred.mispredicted_0::DirectUncond         1140      0.81%     99.70% # Number of committed branches that were mispredicted. (Count)
system.cpu.branchPred.mispredicted_0::IndirectCond            0      0.00%     99.70% # Number of committed branches that were mispredicted. (Count)
system.cpu.branchPred.mispredicted_0::IndirectUncond          421      0.30%    100.00% # Number of committed branches that were mispredicted. (Count)
system.cpu.branchPred.mispredicted_0::total       140041                       # Number of committed branches that were mispredicted. (Count)
system.cpu.branchPred.targetProvider_0::NoTarget      5820806      1.07%      1.07% # The component providing the target for taken branches (Count)
system.cpu.branchPred.targetProvider_0::BTB    318887353     58.52%     59.59% # The component providing the target for taken branches (Count)
system.cpu.branchPred.targetProvider_0::RAS    219618528     40.31%     99.90% # The component providing the target for taken branches (Count)
system.cpu.branchPred.targetProvider_0::Indirect       560017      0.10%    100.00% # The component providing the target for taken branches (Count)
system.cpu.branchPred.targetProvider_0::total    544886704                       # The component providing the target for taken branches (Count)
system.cpu.branchPred.targetWrong_0::NoBranch        41223     27.49%     27.49% # Number of branches where the target was incorrect or not available at prediction time. (Count)
system.cpu.branchPred.targetWrong_0::Return       107937     71.98%     99.47% # Number of branches where the target was incorrect or not available at prediction time. (Count)
system.cpu.branchPred.targetWrong_0::CallDirect          779      0.52%     99.99% # Number of branches where the target was incorrect or not available at prediction time. (Count)
system.cpu.branchPred.targetWrong_0::CallIndirect           21      0.01%    100.00% # Number of branches where the target was incorrect or not available at prediction time. (Count)
system.cpu.branchPred.targetWrong_0::DirectCond            0      0.00%    100.00% # Number of branches where the target was incorrect or not available at prediction time. (Count)
system.cpu.branchPred.targetWrong_0::DirectUncond            0      0.00%    100.00% # Number of branches where the target was incorrect or not available at prediction time. (Count)
system.cpu.branchPred.targetWrong_0::IndirectCond            0      0.00%    100.00% # Number of branches where the target was incorrect or not available at prediction time. (Count)
system.cpu.branchPred.targetWrong_0::IndirectUncond            0      0.00%    100.00% # Number of branches where the target was incorrect or not available at prediction time. (Count)
system.cpu.branchPred.targetWrong_0::total       149960                       # Number of branches where the target was incorrect or not available at prediction time. (Count)
system.cpu.branchPred.condPredicted         103760059                       # Number of conditional branches predicted (Count)
system.cpu.branchPred.condPredictedTaken     97966102                       # Number of conditional branches predicted as taken (Count)
system.cpu.branchPred.condIncorrect            150343                       # Number of conditional branches incorrect (Count)
system.cpu.branchPred.predTakenBTBMiss          14945                       # Number of branches predicted taken but missed in BTB (Count)
system.cpu.branchPred.NotTakenMispredicted        43056                       # Number branches predicted 'not taken' but turned out to be taken (Count)
system.cpu.branchPred.TakenMispredicted        107287                       # Number branches predicted taken but are actually not taken (Count)
system.cpu.branchPred.BTBLookups            544886704                       # Number of BTB lookups (Count)
system.cpu.branchPred.BTBUpdates                41494                       # Number of BTB updates (Count)
system.cpu.branchPred.BTBHits               321156747                       # Number of BTB hits (Count)
system.cpu.branchPred.BTBHitRatio            0.589401                       # BTB Hit Ratio (Ratio)
system.cpu.branchPred.BTBMispredicted           16544                       # Number BTB mispredictions. No target found or target wrong (Count)
system.cpu.branchPred.indirectLookups          563703                       # Number of indirect predictor lookups. (Count)
system.cpu.branchPred.indirectHits             560017                       # Number of indirect target hits. (Count)
system.cpu.branchPred.indirectMisses             3686                       # Number of indirect misses. (Count)
system.cpu.branchPred.indirectMispredicted            0                       # Number of mispredicted indirect branches. (Count)
system.cpu.branchPred.btb.lookups::NoBranch            0      0.00%      0.00% # Number of BTB lookups (Count)
system.cpu.branchPred.btb.lookups::Return    219618533     40.31%     40.31% # Number of BTB lookups (Count)
system.cpu.branchPred.btb.lookups::CallDirect    219566170     40.30%     80.60% # Number of BTB lookups (Count)
system.cpu.branchPred.btb.lookups::CallIndirect         3722      0.00%     80.60% # Number of BTB lookups (Count)
system.cpu.branchPred.btb.lookups::DirectCond    103760059     19.04%     99.64% # Number of BTB lookups (Count)
system.cpu.branchPred.btb.lookups::DirectUncond      1378239      0.25%     99.90% # Number of BTB lookups (Count)
system.cpu.branchPred.btb.lookups::IndirectCond            0      0.00%     99.90% # Number of BTB lookups (Count)
system.cpu.branchPred.btb.lookups::IndirectUncond       559981      0.10%    100.00% # Number of BTB lookups (Count)
system.cpu.branchPred.btb.lookups::total    544886704                       # Number of BTB lookups (Count)
system.cpu.branchPred.btb.misses::NoBranch            0      0.00%      0.00% # Number of BTB misses (Count)
system.cpu.branchPred.btb.misses::Return    219618459     98.16%     98.16% # Number of BTB misses (Count)
system.cpu.branchPred.btb.misses::CallDirect        12412      0.01%     98.17% # Number of BTB misses (Count)
system.cpu.branchPred.btb.misses::CallIndirect         3574      0.00%     98.17% # Number of BTB misses (Count)
system.cpu.branchPred.btb.misses::DirectCond      3533208      1.58%     99.75% # Number of BTB misses (Count)
system.cpu.branchPred.btb.misses::DirectUncond         2323      0.00%     99.75% # Number of BTB misses (Count)
system.cpu.branchPred.btb.misses::IndirectCond            0      0.00%     99.75% # Number of BTB misses (Count)
system.cpu.branchPred.btb.misses::IndirectUncond       559981      0.25%    100.00% # Number of BTB misses (Count)
system.cpu.branchPred.btb.misses::total     223729957                       # Number of BTB misses (Count)
system.cpu.branchPred.btb.updates::NoBranch            0      0.00%      0.00% # Number of BTB updates (Count)
system.cpu.branchPred.btb.updates::Return            0      0.00%      0.00% # Number of BTB updates (Count)
system.cpu.branchPred.btb.updates::CallDirect         9241     22.27%     22.27% # Number of BTB updates (Count)
system.cpu.branchPred.btb.updates::CallIndirect            0      0.00%     22.27% # Number of BTB updates (Count)
system.cpu.branchPred.btb.updates::DirectCond        30164     72.69%     94.97% # Number of BTB updates (Count)
system.cpu.branchPred.btb.updates::DirectUncond         2089      5.03%    100.00% # Number of BTB updates (Count)
system.cpu.branchPred.btb.updates::IndirectCond            0      0.00%    100.00% # Number of BTB updates (Count)
system.cpu.branchPred.btb.updates::IndirectUncond            0      0.00%    100.00% # Number of BTB updates (Count)
system.cpu.branchPred.btb.updates::total        41494                       # Number of BTB updates (Count)
system.cpu.branchPred.btb.mispredict::NoBranch            0      0.00%      0.00% # Number of BTB mispredictions. No target found or target wrong. (Count)
system.cpu.branchPred.btb.mispredict::Return            0      0.00%      0.00% # Number of BTB mispredictions. No target found or target wrong. (Count)
system.cpu.branchPred.btb.mispredict::CallDirect         9241     22.27%     22.27% # Number of BTB mispredictions. No target found or target wrong. (Count)
system.cpu.branchPred.btb.mispredict::CallIndirect            0      0.00%     22.27% # Number of BTB mispredictions. No target found or target wrong. (Count)
system.cpu.branchPred.btb.mispredict::DirectCond        30164     72.69%     94.97% # Number of BTB mispredictions. No target found or target wrong. (Count)
system.cpu.branchPred.btb.mispredict::DirectUncond         2089      5.03%    100.00% # Number of BTB mispredictions. No target found or target wrong. (Count)
system.cpu.branchPred.btb.mispredict::IndirectCond            0      0.00%    100.00% # Number of BTB mispredictions. No target found or target wrong. (Count)
system.cpu.branchPred.btb.mispredict::IndirectUncond            0      0.00%    100.00% # Number of BTB mispredictions. No target found or target wrong. (Count)
system.cpu.branchPred.btb.mispredict::total        41494                       # Number of BTB mispredictions. No target found or target wrong. (Count)
system.cpu.branchPred.btb.power_state.pwrStateResidencyTicks::UNDEFINED 2164728913721                       # Cumulative time (in ticks) in various power states (Tick)
system.cpu.branchPred.indirectBranchPred.lookups       563703                       # Number of lookups (Count)
system.cpu.branchPred.indirectBranchPred.hits       560017                       # Number of hits of a tag (Count)
system.cpu.branchPred.indirectBranchPred.misses         3686                       # Number of misses (Count)
system.cpu.branchPred.indirectBranchPred.targetRecords          783                       # Number of targets that where recorded/installed in the cache (Count)
system.cpu.branchPred.indirectBranchPred.indirectRecords       564486                       # Number of indirect branches/calls recorded in the indirect hist (Count)
system.cpu.branchPred.indirectBranchPred.speculativeOverflows            0                       # Number of times more than the allowed capacity for speculative branches/calls where in flight and destroy the path history (Count)
system.cpu.branchPred.ras.pushes            220255992                       # Number of times a PC was pushed onto the RAS (Count)
system.cpu.branchPred.ras.pops              220255988                       # Number of times a PC was poped from the RAS (Count)
system.cpu.branchPred.ras.squashes            1323555                       # Number of times the stack operation was squashed due to wrong speculation. (Count)
system.cpu.branchPred.ras.used              218932433                       # Number of times the RAS is the provider (Count)
system.cpu.branchPred.ras.correct           218931675                       # Number of times the RAS is the provider and the prediction is correct (Count)
system.cpu.branchPred.ras.incorrect               758                       # Number of times the RAS is the provider and the prediction is wrong (Count)
system.cpu.commit.commitSquashedInsts        14562408                       # The number of squashed insts skipped by commit (Count)
system.cpu.commit.commitNonSpecStalls            7899                       # The number of times commit has been forced to stall to communicate backwards (Count)
system.cpu.commit.branchMispredicts            140968                       # The number of times a branch was mispredicted (Count)
system.cpu.commit.numCommittedDist::samples   6868162777                       # Number of insts commited each cycle (Count)
system.cpu.commit.numCommittedDist::mean     1.057549                       # Number of insts commited each cycle (Count)
system.cpu.commit.numCommittedDist::stdev     2.371347                       # Number of insts commited each cycle (Count)
system.cpu.commit.numCommittedDist::underflows            0      0.00%      0.00% # Number of insts commited each cycle (Count)
system.cpu.commit.numCommittedDist::0      5168265276     75.25%     75.25% # Number of insts commited each cycle (Count)
system.cpu.commit.numCommittedDist::1       548325242      7.98%     83.23% # Number of insts commited each cycle (Count)
system.cpu.commit.numCommittedDist::2       147423884      2.15%     85.38% # Number of insts commited each cycle (Count)
system.cpu.commit.numCommittedDist::3       204136372      2.97%     88.35% # Number of insts commited each cycle (Count)
system.cpu.commit.numCommittedDist::4        39435369      0.57%     88.93% # Number of insts commited each cycle (Count)
system.cpu.commit.numCommittedDist::5        70746810      1.03%     89.96% # Number of insts commited each cycle (Count)
system.cpu.commit.numCommittedDist::6        56599010      0.82%     90.78% # Number of insts commited each cycle (Count)
system.cpu.commit.numCommittedDist::7       109076810      1.59%     92.37% # Number of insts commited each cycle (Count)
system.cpu.commit.numCommittedDist::8       524154004      7.63%    100.00% # Number of insts commited each cycle (Count)
system.cpu.commit.numCommittedDist::overflows            0      0.00%    100.00% # Number of insts commited each cycle (Count)
system.cpu.commit.numCommittedDist::min_value            0                       # Number of insts commited each cycle (Count)
system.cpu.commit.numCommittedDist::max_value            8                       # Number of insts commited each cycle (Count)
system.cpu.commit.numCommittedDist::total   6868162777                       # Number of insts commited each cycle (Count)
system.cpu.commit.amos                              0                       # Number of atomic instructions committed (Count)
system.cpu.commit.membars                        5110                       # Number of memory barriers committed (Count)
system.cpu.commit.functionCalls             218932437                       # Number of function calls committed. (Count)
system.cpu.commit.committedInstType_0::No_OpClass       132223      0.00%      0.00% # Class of committed instruction (Count)
system.cpu.commit.committedInstType_0::IntAlu   4251682687     58.54%     58.54% # Class of committed instruction (Count)
system.cpu.commit.committedInstType_0::IntMult     24505268      0.34%     58.87% # Class of committed instruction (Count)
system.cpu.commit.committedInstType_0::IntDiv         4053      0.00%     58.87% # Class of committed instruction (Count)
system.cpu.commit.committedInstType_0::FloatAdd    143489193      1.98%     60.85% # Class of committed instruction (Count)
system.cpu.commit.committedInstType_0::FloatCmp            0      0.00%     60.85% # Class of committed instruction (Count)
system.cpu.commit.committedInstType_0::FloatCvt          416      0.00%     60.85% # Class of committed instruction (Count)
system.cpu.commit.committedInstType_0::FloatMult            0      0.00%     60.85% # Class of committed instruction (Count)
system.cpu.commit.committedInstType_0::FloatMultAcc            0      0.00%     60.85% # Class of committed instruction (Count)
system.cpu.commit.committedInstType_0::FloatDiv            0      0.00%     60.85% # Class of committed instruction (Count)
system.cpu.commit.committedInstType_0::FloatMisc            0      0.00%     60.85% # Class of committed instruction (Count)
system.cpu.commit.committedInstType_0::FloatSqrt            0      0.00%     60.85% # Class of committed instruction (Count)
system.cpu.commit.committedInstType_0::SimdAdd          116      0.00%     60.85% # Class of committed instruction (Count)
system.cpu.commit.committedInstType_0::SimdAddAcc            0      0.00%     60.85% # Class of committed instruction (Count)
system.cpu.commit.committedInstType_0::SimdAlu     48282158      0.66%     61.52% # Class of committed instruction (Count)
system.cpu.commit.committedInstType_0::SimdCmp            0      0.00%     61.52% # Class of committed instruction (Count)
system.cpu.commit.committedInstType_0::SimdCvt         1478      0.00%     61.52% # Class of committed instruction (Count)
system.cpu.commit.committedInstType_0::SimdMisc     47891135      0.66%     62.17% # Class of committed instruction (Count)
system.cpu.commit.committedInstType_0::SimdMult            0      0.00%     62.17% # Class of committed instruction (Count)
system.cpu.commit.committedInstType_0::SimdMultAcc            0      0.00%     62.17% # Class of committed instruction (Count)
system.cpu.commit.committedInstType_0::SimdMatMultAcc            0      0.00%     62.17% # Class of committed instruction (Count)
system.cpu.commit.committedInstType_0::SimdShift            0      0.00%     62.17% # Class of committed instruction (Count)
system.cpu.commit.committedInstType_0::SimdShiftAcc            0      0.00%     62.17% # Class of committed instruction (Count)
system.cpu.commit.committedInstType_0::SimdDiv            0      0.00%     62.17% # Class of committed instruction (Count)
system.cpu.commit.committedInstType_0::SimdSqrt            0      0.00%     62.17% # Class of committed instruction (Count)
system.cpu.commit.committedInstType_0::SimdFloatAdd     24049920      0.33%     62.51% # Class of committed instruction (Count)
system.cpu.commit.committedInstType_0::SimdFloatAlu            0      0.00%     62.51% # Class of committed instruction (Count)
system.cpu.commit.committedInstType_0::SimdFloatCmp            0      0.00%     62.51% # Class of committed instruction (Count)
system.cpu.commit.committedInstType_0::SimdFloatCvt     71510784      0.98%     63.49% # Class of committed instruction (Count)
system.cpu.commit.committedInstType_0::SimdFloatDiv       363264      0.01%     63.50% # Class of committed instruction (Count)
system.cpu.commit.committedInstType_0::SimdFloatMisc            0      0.00%     63.50% # Class of committed instruction (Count)
system.cpu.commit.committedInstType_0::SimdFloatMult     23685120      0.33%     63.82% # Class of committed instruction (Count)
system.cpu.commit.committedInstType_0::SimdFloatMultAcc            0      0.00%     63.82% # Class of committed instruction (Count)
system.cpu.commit.committedInstType_0::SimdFloatMatMultAcc            0      0.00%     63.82% # Class of committed instruction (Count)
system.cpu.commit.committedInstType_0::SimdFloatSqrt            0      0.00%     63.82% # Class of committed instruction (Count)
system.cpu.commit.committedInstType_0::SimdReduceAdd            0      0.00%     63.82% # Class of committed instruction (Count)
system.cpu.commit.committedInstType_0::SimdReduceAlu            0      0.00%     63.82% # Class of committed instruction (Count)
system.cpu.commit.committedInstType_0::SimdReduceCmp            0      0.00%     63.82% # Class of committed instruction (Count)
system.cpu.commit.committedInstType_0::SimdFloatReduceAdd            0      0.00%     63.82% # Class of committed instruction (Count)
system.cpu.commit.committedInstType_0::SimdFloatReduceCmp            0      0.00%     63.82% # Class of committed instruction (Count)
system.cpu.commit.committedInstType_0::SimdAes            0      0.00%     63.82% # Class of committed instruction (Count)
system.cpu.commit.committedInstType_0::SimdAesMix            0      0.00%     63.82% # Class of committed instruction (Count)
system.cpu.commit.committedInstType_0::SimdSha1Hash            0      0.00%     63.82% # Class of committed instruction (Count)
system.cpu.commit.committedInstType_0::SimdSha1Hash2            0      0.00%     63.82% # Class of committed instruction (Count)
system.cpu.commit.committedInstType_0::SimdSha256Hash            0      0.00%     63.82% # Class of committed instruction (Count)
system.cpu.commit.committedInstType_0::SimdSha256Hash2            0      0.00%     63.82% # Class of committed instruction (Count)
system.cpu.commit.committedInstType_0::SimdShaSigma2            0      0.00%     63.82% # Class of committed instruction (Count)
system.cpu.commit.committedInstType_0::SimdShaSigma3            0      0.00%     63.82% # Class of committed instruction (Count)
system.cpu.commit.committedInstType_0::SimdPredAlu            0      0.00%     63.82% # Class of committed instruction (Count)
system.cpu.commit.committedInstType_0::Matrix            0      0.00%     63.82% # Class of committed instruction (Count)
system.cpu.commit.committedInstType_0::MatrixMov            0      0.00%     63.82% # Class of committed instruction (Count)
system.cpu.commit.committedInstType_0::MatrixOP            0      0.00%     63.82% # Class of committed instruction (Count)
system.cpu.commit.committedInstType_0::MemRead   1482592230     20.41%     84.23% # Class of committed instruction (Count)
system.cpu.commit.committedInstType_0::MemWrite    929500675     12.80%     97.03% # Class of committed instruction (Count)
system.cpu.commit.committedInstType_0::FloatMemRead    167269666      2.30%     99.33% # Class of committed instruction (Count)
system.cpu.commit.committedInstType_0::FloatMemWrite     48461028      0.67%    100.00% # Class of committed instruction (Count)
system.cpu.commit.committedInstType_0::IprAccess            0      0.00%    100.00% # Class of committed instruction (Count)
system.cpu.commit.committedInstType_0::InstPrefetch            0      0.00%    100.00% # Class of committed instruction (Count)
system.cpu.commit.committedInstType_0::SimdUnitStrideLoad            0      0.00%    100.00% # Class of committed instruction (Count)
system.cpu.commit.committedInstType_0::SimdUnitStrideStore            0      0.00%    100.00% # Class of committed instruction (Count)
system.cpu.commit.committedInstType_0::SimdUnitStrideMaskLoad            0      0.00%    100.00% # Class of committed instruction (Count)
system.cpu.commit.committedInstType_0::SimdUnitStrideMaskStore            0      0.00%    100.00% # Class of committed instruction (Count)
system.cpu.commit.committedInstType_0::SimdStridedLoad            0      0.00%    100.00% # Class of committed instruction (Count)
system.cpu.commit.committedInstType_0::SimdStridedStore            0      0.00%    100.00% # Class of committed instruction (Count)
system.cpu.commit.committedInstType_0::SimdIndexedLoad            0      0.00%    100.00% # Class of committed instruction (Count)
system.cpu.commit.committedInstType_0::SimdIndexedStore            0      0.00%    100.00% # Class of committed instruction (Count)
system.cpu.commit.committedInstType_0::SimdWholeRegisterLoad            0      0.00%    100.00% # Class of committed instruction (Count)
system.cpu.commit.committedInstType_0::SimdWholeRegisterStore            0      0.00%    100.00% # Class of committed instruction (Count)
system.cpu.commit.committedInstType_0::SimdUnitStrideFaultOnlyFirstLoad            0      0.00%    100.00% # Class of committed instruction (Count)
system.cpu.commit.committedInstType_0::SimdUnitStrideSegmentedLoad            0      0.00%    100.00% # Class of committed instruction (Count)
system.cpu.commit.committedInstType_0::SimdUnitStrideSegmentedStore            0      0.00%    100.00% # Class of committed instruction (Count)
system.cpu.commit.committedInstType_0::SimdExt            0      0.00%    100.00% # Class of committed instruction (Count)
system.cpu.commit.committedInstType_0::SimdFloatExt            0      0.00%    100.00% # Class of committed instruction (Count)
system.cpu.commit.committedInstType_0::SimdConfig            0      0.00%    100.00% # Class of committed instruction (Count)
system.cpu.commit.committedInstType_0::total   7263421414                       # Class of committed instruction (Count)
system.cpu.commit.commitEligibleSamples     524154004                       # number cycles where commit BW limit reached (Cycle)
system.cpu.commitStats0.numInsts           4364092100                       # Number of instructions committed (thread level) (Count)
system.cpu.commitStats0.numOps             7263421414                       # Number of ops (including micro ops) committed (thread level) (Count)
system.cpu.commitStats0.numInstsNotNOP     4364092100                       # Number of instructions committed excluding NOPs or prefetches (Count)
system.cpu.commitStats0.numOpsNotNOP       7263421414                       # Number of Ops (including micro ops) Simulated (Count)
system.cpu.commitStats0.cpi                  1.584766                       # CPI: cycles per instruction (thread level) ((Cycle/Count))
system.cpu.commitStats0.ipc                  0.631008                       # IPC: instructions per cycle (thread level) ((Count/Cycle))
system.cpu.commitStats0.numMemRefs         2627823599                       # Number of memory references committed (Count)
system.cpu.commitStats0.numFpInsts          575004967                       # Number of float instructions (Count)
system.cpu.commitStats0.numIntInsts        6950427075                       # Number of integer instructions (Count)
system.cpu.commitStats0.numLoadInsts       1649861896                       # Number of load instructions (Count)
system.cpu.commitStats0.numStoreInsts       977961703                       # Number of store instructions (Count)
system.cpu.commitStats0.numVecInsts                 0                       # Number of vector instructions (Count)
system.cpu.commitStats0.committedInstType::No_OpClass       132223      0.00%      0.00% # Class of committed instruction. (Count)
system.cpu.commitStats0.committedInstType::IntAlu   4251682687     58.54%     58.54% # Class of committed instruction. (Count)
system.cpu.commitStats0.committedInstType::IntMult     24505268      0.34%     58.87% # Class of committed instruction. (Count)
system.cpu.commitStats0.committedInstType::IntDiv         4053      0.00%     58.87% # Class of committed instruction. (Count)
system.cpu.commitStats0.committedInstType::FloatAdd    143489193      1.98%     60.85% # Class of committed instruction. (Count)
system.cpu.commitStats0.committedInstType::FloatCmp            0      0.00%     60.85% # Class of committed instruction. (Count)
system.cpu.commitStats0.committedInstType::FloatCvt          416      0.00%     60.85% # Class of committed instruction. (Count)
system.cpu.commitStats0.committedInstType::FloatMult            0      0.00%     60.85% # Class of committed instruction. (Count)
system.cpu.commitStats0.committedInstType::FloatMultAcc            0      0.00%     60.85% # Class of committed instruction. (Count)
system.cpu.commitStats0.committedInstType::FloatDiv            0      0.00%     60.85% # Class of committed instruction. (Count)
system.cpu.commitStats0.committedInstType::FloatMisc            0      0.00%     60.85% # Class of committed instruction. (Count)
system.cpu.commitStats0.committedInstType::FloatSqrt            0      0.00%     60.85% # Class of committed instruction. (Count)
system.cpu.commitStats0.committedInstType::SimdAdd          116      0.00%     60.85% # Class of committed instruction. (Count)
system.cpu.commitStats0.committedInstType::SimdAddAcc            0      0.00%     60.85% # Class of committed instruction. (Count)
system.cpu.commitStats0.committedInstType::SimdAlu     48282158      0.66%     61.52% # Class of committed instruction. (Count)
system.cpu.commitStats0.committedInstType::SimdCmp            0      0.00%     61.52% # Class of committed instruction. (Count)
system.cpu.commitStats0.committedInstType::SimdCvt         1478      0.00%     61.52% # Class of committed instruction. (Count)
system.cpu.commitStats0.committedInstType::SimdMisc     47891135      0.66%     62.17% # Class of committed instruction. (Count)
system.cpu.commitStats0.committedInstType::SimdMult            0      0.00%     62.17% # Class of committed instruction. (Count)
system.cpu.commitStats0.committedInstType::SimdMultAcc            0      0.00%     62.17% # Class of committed instruction. (Count)
system.cpu.commitStats0.committedInstType::SimdMatMultAcc            0      0.00%     62.17% # Class of committed instruction. (Count)
system.cpu.commitStats0.committedInstType::SimdShift            0      0.00%     62.17% # Class of committed instruction. (Count)
system.cpu.commitStats0.committedInstType::SimdShiftAcc            0      0.00%     62.17% # Class of committed instruction. (Count)
system.cpu.commitStats0.committedInstType::SimdDiv            0      0.00%     62.17% # Class of committed instruction. (Count)
system.cpu.commitStats0.committedInstType::SimdSqrt            0      0.00%     62.17% # Class of committed instruction. (Count)
system.cpu.commitStats0.committedInstType::SimdFloatAdd     24049920      0.33%     62.51% # Class of committed instruction. (Count)
system.cpu.commitStats0.committedInstType::SimdFloatAlu            0      0.00%     62.51% # Class of committed instruction. (Count)
system.cpu.commitStats0.committedInstType::SimdFloatCmp            0      0.00%     62.51% # Class of committed instruction. (Count)
system.cpu.commitStats0.committedInstType::SimdFloatCvt     71510784      0.98%     63.49% # Class of committed instruction. (Count)
system.cpu.commitStats0.committedInstType::SimdFloatDiv       363264      0.01%     63.50% # Class of committed instruction. (Count)
system.cpu.commitStats0.committedInstType::SimdFloatMisc            0      0.00%     63.50% # Class of committed instruction. (Count)
system.cpu.commitStats0.committedInstType::SimdFloatMult     23685120      0.33%     63.82% # Class of committed instruction. (Count)
system.cpu.commitStats0.committedInstType::SimdFloatMultAcc            0      0.00%     63.82% # Class of committed instruction. (Count)
system.cpu.commitStats0.committedInstType::SimdFloatMatMultAcc            0      0.00%     63.82% # Class of committed instruction. (Count)
system.cpu.commitStats0.committedInstType::SimdFloatSqrt            0      0.00%     63.82% # Class of committed instruction. (Count)
system.cpu.commitStats0.committedInstType::SimdReduceAdd            0      0.00%     63.82% # Class of committed instruction. (Count)
system.cpu.commitStats0.committedInstType::SimdReduceAlu            0      0.00%     63.82% # Class of committed instruction. (Count)
system.cpu.commitStats0.committedInstType::SimdReduceCmp            0      0.00%     63.82% # Class of committed instruction. (Count)
system.cpu.commitStats0.committedInstType::SimdFloatReduceAdd            0      0.00%     63.82% # Class of committed instruction. (Count)
system.cpu.commitStats0.committedInstType::SimdFloatReduceCmp            0      0.00%     63.82% # Class of committed instruction. (Count)
system.cpu.commitStats0.committedInstType::SimdAes            0      0.00%     63.82% # Class of committed instruction. (Count)
system.cpu.commitStats0.committedInstType::SimdAesMix            0      0.00%     63.82% # Class of committed instruction. (Count)
system.cpu.commitStats0.committedInstType::SimdSha1Hash            0      0.00%     63.82% # Class of committed instruction. (Count)
system.cpu.commitStats0.committedInstType::SimdSha1Hash2            0      0.00%     63.82% # Class of committed instruction. (Count)
system.cpu.commitStats0.committedInstType::SimdSha256Hash            0      0.00%     63.82% # Class of committed instruction. (Count)
system.cpu.commitStats0.committedInstType::SimdSha256Hash2            0      0.00%     63.82% # Class of committed instruction. (Count)
system.cpu.commitStats0.committedInstType::SimdShaSigma2            0      0.00%     63.82% # Class of committed instruction. (Count)
system.cpu.commitStats0.committedInstType::SimdShaSigma3            0      0.00%     63.82% # Class of committed instruction. (Count)
system.cpu.commitStats0.committedInstType::SimdPredAlu            0      0.00%     63.82% # Class of committed instruction. (Count)
system.cpu.commitStats0.committedInstType::Matrix            0      0.00%     63.82% # Class of committed instruction. (Count)
system.cpu.commitStats0.committedInstType::MatrixMov            0      0.00%     63.82% # Class of committed instruction. (Count)
system.cpu.commitStats0.committedInstType::MatrixOP            0      0.00%     63.82% # Class of committed instruction. (Count)
system.cpu.commitStats0.committedInstType::MemRead   1482592230     20.41%     84.23% # Class of committed instruction. (Count)
system.cpu.commitStats0.committedInstType::MemWrite    929500675     12.80%     97.03% # Class of committed instruction. (Count)
system.cpu.commitStats0.committedInstType::FloatMemRead    167269666      2.30%     99.33% # Class of committed instruction. (Count)
system.cpu.commitStats0.committedInstType::FloatMemWrite     48461028      0.67%    100.00% # Class of committed instruction. (Count)
system.cpu.commitStats0.committedInstType::IprAccess            0      0.00%    100.00% # Class of committed instruction. (Count)
system.cpu.commitStats0.committedInstType::InstPrefetch            0      0.00%    100.00% # Class of committed instruction. (Count)
system.cpu.commitStats0.committedInstType::SimdUnitStrideLoad            0      0.00%    100.00% # Class of committed instruction. (Count)
system.cpu.commitStats0.committedInstType::SimdUnitStrideStore            0      0.00%    100.00% # Class of committed instruction. (Count)
system.cpu.commitStats0.committedInstType::SimdUnitStrideMaskLoad            0      0.00%    100.00% # Class of committed instruction. (Count)
system.cpu.commitStats0.committedInstType::SimdUnitStrideMaskStore            0      0.00%    100.00% # Class of committed instruction. (Count)
system.cpu.commitStats0.committedInstType::SimdStridedLoad            0      0.00%    100.00% # Class of committed instruction. (Count)
system.cpu.commitStats0.committedInstType::SimdStridedStore            0      0.00%    100.00% # Class of committed instruction. (Count)
system.cpu.commitStats0.committedInstType::SimdIndexedLoad            0      0.00%    100.00% # Class of committed instruction. (Count)
system.cpu.commitStats0.committedInstType::SimdIndexedStore            0      0.00%    100.00% # Class of committed instruction. (Count)
system.cpu.commitStats0.committedInstType::SimdWholeRegisterLoad            0      0.00%    100.00% # Class of committed instruction. (Count)
system.cpu.commitStats0.committedInstType::SimdWholeRegisterStore            0      0.00%    100.00% # Class of committed instruction. (Count)
system.cpu.commitStats0.committedInstType::SimdUnitStrideFaultOnlyFirstLoad            0      0.00%    100.00% # Class of committed instruction. (Count)
system.cpu.commitStats0.committedInstType::SimdUnitStrideSegmentedLoad            0      0.00%    100.00% # Class of committed instruction. (Count)
system.cpu.commitStats0.committedInstType::SimdUnitStrideSegmentedStore            0      0.00%    100.00% # Class of committed instruction. (Count)
system.cpu.commitStats0.committedInstType::SimdExt            0      0.00%    100.00% # Class of committed instruction. (Count)
system.cpu.commitStats0.committedInstType::SimdFloatExt            0      0.00%    100.00% # Class of committed instruction. (Count)
system.cpu.commitStats0.committedInstType::SimdConfig            0      0.00%    100.00% # Class of committed instruction. (Count)
system.cpu.commitStats0.committedInstType::total   7263421414                       # Class of committed instruction. (Count)
system.cpu.commitStats0.committedControl::IsControl    543125600                       # Class of control type instructions committed (Count)
system.cpu.commitStats0.committedControl::IsDirectControl    323635220                       # Class of control type instructions committed (Count)
system.cpu.commitStats0.committedControl::IsIndirectControl    219490380                       # Class of control type instructions committed (Count)
system.cpu.commitStats0.committedControl::IsCondControl    103386321                       # Class of control type instructions committed (Count)
system.cpu.commitStats0.committedControl::IsUncondControl    439739279                       # Class of control type instructions committed (Count)
system.cpu.commitStats0.committedControl::IsCall    218932437                       # Class of control type instructions committed (Count)
system.cpu.commitStats0.committedControl::IsReturn    218932433                       # Class of control type instructions committed (Count)
system.cpu.dcache.demandHits::cpu.data     1511380968                       # number of demand (read+write) hits (Count)
system.cpu.dcache.demandHits::total        1511380968                       # number of demand (read+write) hits (Count)
system.cpu.dcache.overallHits::cpu.data    1511380968                       # number of overall hits (Count)
system.cpu.dcache.overallHits::total       1511380968                       # number of overall hits (Count)
system.cpu.dcache.demandMisses::cpu.data     34284616                       # number of demand (read+write) misses (Count)
system.cpu.dcache.demandMisses::total        34284616                       # number of demand (read+write) misses (Count)
system.cpu.dcache.overallMisses::cpu.data     34284616                       # number of overall misses (Count)
system.cpu.dcache.overallMisses::total       34284616                       # number of overall misses (Count)
system.cpu.dcache.demandMissLatency::cpu.data 1495560786255                       # number of demand (read+write) miss ticks (Tick)
system.cpu.dcache.demandMissLatency::total 1495560786255                       # number of demand (read+write) miss ticks (Tick)
system.cpu.dcache.overallMissLatency::cpu.data 1495560786255                       # number of overall miss ticks (Tick)
system.cpu.dcache.overallMissLatency::total 1495560786255                       # number of overall miss ticks (Tick)
system.cpu.dcache.demandAccesses::cpu.data   1545665584                       # number of demand (read+write) accesses (Count)
system.cpu.dcache.demandAccesses::total    1545665584                       # number of demand (read+write) accesses (Count)
system.cpu.dcache.overallAccesses::cpu.data   1545665584                       # number of overall (read+write) accesses (Count)
system.cpu.dcache.overallAccesses::total   1545665584                       # number of overall (read+write) accesses (Count)
system.cpu.dcache.demandMissRate::cpu.data     0.022181                       # miss rate for demand accesses (Ratio)
system.cpu.dcache.demandMissRate::total      0.022181                       # miss rate for demand accesses (Ratio)
system.cpu.dcache.overallMissRate::cpu.data     0.022181                       # miss rate for overall accesses (Ratio)
system.cpu.dcache.overallMissRate::total     0.022181                       # miss rate for overall accesses (Ratio)
system.cpu.dcache.demandAvgMissLatency::cpu.data 43621.920288                       # average overall miss latency in ticks ((Tick/Count))
system.cpu.dcache.demandAvgMissLatency::total 43621.920288                       # average overall miss latency in ticks ((Tick/Count))
system.cpu.dcache.overallAvgMissLatency::cpu.data 43621.920288                       # average overall miss latency ((Tick/Count))
system.cpu.dcache.overallAvgMissLatency::total 43621.920288                       # average overall miss latency ((Tick/Count))
system.cpu.dcache.blockedCycles::no_mshrs      3088176                       # number of cycles access was blocked (Cycle)
system.cpu.dcache.blockedCycles::no_targets        33352                       # number of cycles access was blocked (Cycle)
system.cpu.dcache.blockedCauses::no_mshrs         3232                       # number of times access was blocked (Count)
system.cpu.dcache.blockedCauses::no_targets           39                       # number of times access was blocked (Count)
system.cpu.dcache.avgBlocked::no_mshrs     955.500000                       # average number of cycles each access was blocked ((Cycle/Count))
system.cpu.dcache.avgBlocked::no_targets   855.179487                       # average number of cycles each access was blocked ((Cycle/Count))
system.cpu.dcache.writebacks::writebacks     20978181                       # number of writebacks (Count)
system.cpu.dcache.writebacks::total          20978181                       # number of writebacks (Count)
system.cpu.dcache.demandMshrHits::cpu.data       148444                       # number of demand (read+write) MSHR hits (Count)
system.cpu.dcache.demandMshrHits::total        148444                       # number of demand (read+write) MSHR hits (Count)
system.cpu.dcache.overallMshrHits::cpu.data       148444                       # number of overall MSHR hits (Count)
[...]
system.l2.UpgradeReq.misses::total                  1                       # number of UpgradeReq misses (Count)
system.l2.UpgradeReq.missLatency::cpu.data        34117                       # number of UpgradeReq miss ticks (Tick)
system.l2.UpgradeReq.missLatency::total         34117                       # number of UpgradeReq miss ticks (Tick)
system.l2.UpgradeReq.accesses::cpu.data             4                       # number of UpgradeReq accesses(hits+misses) (Count)
system.l2.UpgradeReq.accesses::total                4                       # number of UpgradeReq accesses(hits+misses) (Count)
system.l2.UpgradeReq.missRate::cpu.data      0.250000                       # miss rate for UpgradeReq accesses (Ratio)
system.l2.UpgradeReq.missRate::total         0.250000                       # miss rate for UpgradeReq accesses (Ratio)
system.l2.UpgradeReq.avgMissLatency::cpu.data        34117                       # average UpgradeReq miss latency ((Tick/Count))
system.l2.UpgradeReq.avgMissLatency::total        34117                       # average UpgradeReq miss latency ((Tick/Count))
system.l2.UpgradeReq.mshrMisses::cpu.data            1                       # number of UpgradeReq MSHR misses (Count)
system.l2.UpgradeReq.mshrMisses::total              1                       # number of UpgradeReq MSHR misses (Count)
system.l2.UpgradeReq.mshrMissLatency::cpu.data        27811                       # number of UpgradeReq MSHR miss ticks (Tick)
system.l2.UpgradeReq.mshrMissLatency::total        27811                       # number of UpgradeReq MSHR miss ticks (Tick)
system.l2.UpgradeReq.mshrMissRate::cpu.data     0.250000                       # mshr miss rate for UpgradeReq accesses (Ratio)
system.l2.UpgradeReq.mshrMissRate::total     0.250000                       # mshr miss rate for UpgradeReq accesses (Ratio)
system.l2.UpgradeReq.avgMshrMissLatency::cpu.data        27811                       # average UpgradeReq mshr miss latency ((Tick/Count))
system.l2.UpgradeReq.avgMshrMissLatency::total        27811                       # average UpgradeReq mshr miss latency ((Tick/Count))
system.l2.WritebackClean.hits::writebacks        15915                       # number of WritebackClean hits (Count)
system.l2.WritebackClean.hits::total            15915                       # number of WritebackClean hits (Count)
system.l2.WritebackClean.accesses::writebacks        15915                       # number of WritebackClean accesses(hits+misses) (Count)
system.l2.WritebackClean.accesses::total        15915                       # number of WritebackClean accesses(hits+misses) (Count)
system.l2.WritebackDirty.hits::writebacks     20978181                       # number of WritebackDirty hits (Count)
system.l2.WritebackDirty.hits::total         20978181                       # number of WritebackDirty hits (Count)
system.l2.WritebackDirty.accesses::writebacks     20978181                       # number of WritebackDirty accesses(hits+misses) (Count)
system.l2.WritebackDirty.accesses::total     20978181                       # number of WritebackDirty accesses(hits+misses) (Count)
system.l2.power_state.pwrStateResidencyTicks::UNDEFINED 2164728913721                       # Cumulative time (in ticks) in various power states (Tick)
system.l2.tags.tagsInUse                 32675.107254                       # Average ticks per tags in use ((Tick/Count))
system.l2.tags.totalRefs                     68304014                       # Total number of references to valid blocks. (Count)
system.l2.tags.sampledRefs                    3583717                       # Sample count of references to valid blocks. (Count)
system.l2.tags.avgRefs                      19.059545                       # Average number of references to valid blocks. ((Count/Count))
system.l2.tags.warmupTick                      430000                       # The tick when the warmup percentage was hit. (Tick)
system.l2.tags.occupancies::writebacks      35.051452                       # Average occupied blocks per tick, per requestor ((Count/Tick))
system.l2.tags.occupancies::cpu.inst        34.677457                       # Average occupied blocks per tick, per requestor ((Count/Tick))
system.l2.tags.occupancies::cpu.data     32605.378345                       # Average occupied blocks per tick, per requestor ((Count/Tick))
system.l2.tags.avgOccs::writebacks           0.001070                       # Average percentage of cache occupancy ((Ratio/Tick))
system.l2.tags.avgOccs::cpu.inst             0.001058                       # Average percentage of cache occupancy ((Ratio/Tick))
system.l2.tags.avgOccs::cpu.data             0.995037                       # Average percentage of cache occupancy ((Ratio/Tick))
system.l2.tags.avgOccs::total                0.997165                       # Average percentage of cache occupancy ((Ratio/Tick))
system.l2.tags.occupanciesTaskId::1024          32768                       # Occupied blocks per task id (Count)
system.l2.tags.ageTaskId_1024::0                   39                       # Occupied blocks per task id, per block age (Count)
system.l2.tags.ageTaskId_1024::1                  293                       # Occupied blocks per task id, per block age (Count)
system.l2.tags.ageTaskId_1024::2                  430                       # Occupied blocks per task id, per block age (Count)
system.l2.tags.ageTaskId_1024::3                 3649                       # Occupied blocks per task id, per block age (Count)
system.l2.tags.ageTaskId_1024::4                28357                       # Occupied blocks per task id, per block age (Count)
system.l2.tags.ratioOccsTaskId::1024                1                       # Ratio of occupied blocks and all blocks, per task id (Ratio)
system.l2.tags.tagAccesses                  550016469                       # Number of tag accesses (Count)
system.l2.tags.dataAccesses                 550016469                       # Number of data accesses (Count)
system.l2.tags.power_state.pwrStateResidencyTicks::UNDEFINED 2164728913721                       # Cumulative time (in ticks) in various power states (Tick)
system.mem_ctrls.bytesRead::cpu.inst           414336                       # Number of bytes read from this memory (Byte)
system.mem_ctrls.bytesRead::cpu.data        228566720                       # Number of bytes read from this memory (Byte)
system.mem_ctrls.bytesRead::total           228981056                       # Number of bytes read from this memory (Byte)
system.mem_ctrls.bytesInstRead::cpu.inst       414336                       # Number of instructions bytes read from this memory (Byte)
system.mem_ctrls.bytesInstRead::total          414336                       # Number of instructions bytes read from this memory (Byte)
system.mem_ctrls.bytesWritten::writebacks     35699456                       # Number of bytes written to this memory (Byte)
system.mem_ctrls.bytesWritten::total         35699456                       # Number of bytes written to this memory (Byte)
system.mem_ctrls.numReads::cpu.inst              6474                       # Number of read requests responded to by this memory (Count)
system.mem_ctrls.numReads::cpu.data           3571355                       # Number of read requests responded to by this memory (Count)
system.mem_ctrls.numReads::total              3577829                       # Number of read requests responded to by this memory (Count)
system.mem_ctrls.numWrites::writebacks         557804                       # Number of write requests responded to by this memory (Count)
system.mem_ctrls.numWrites::total              557804                       # Number of write requests responded to by this memory (Count)
system.mem_ctrls.bwRead::cpu.inst              191403                       # Total read bandwidth from this memory ((Byte/Second))
system.mem_ctrls.bwRead::cpu.data           105586764                       # Total read bandwidth from this memory ((Byte/Second))
system.mem_ctrls.bwRead::total              105778167                       # Total read bandwidth from this memory ((Byte/Second))
system.mem_ctrls.bwInstRead::cpu.inst          191403                       # Instruction read bandwidth from this memory ((Byte/Second))
system.mem_ctrls.bwInstRead::total             191403                       # Instruction read bandwidth from this memory ((Byte/Second))
system.mem_ctrls.bwWrite::writebacks         16491421                       # Write bandwidth from this memory ((Byte/Second))
system.mem_ctrls.bwWrite::total              16491421                       # Write bandwidth from this memory ((Byte/Second))
system.mem_ctrls.bwTotal::writebacks         16491421                       # Total bandwidth to/from this memory ((Byte/Second))
system.mem_ctrls.bwTotal::cpu.inst             191403                       # Total bandwidth to/from this memory ((Byte/Second))
system.mem_ctrls.bwTotal::cpu.data          105586764                       # Total bandwidth to/from this memory ((Byte/Second))
system.mem_ctrls.bwTotal::total             122269588                       # Total bandwidth to/from this memory ((Byte/Second))
system.mem_ctrls.power_state.pwrStateResidencyTicks::UNDEFINED 2164728913721                       # Cumulative time (in ticks) in various power states (Tick)
system.membus.transDist::ReadResp             3137061                       # Transaction distribution (Count)
system.membus.transDist::WritebackDirty        557804                       # Transaction distribution (Count)
system.membus.transDist::CleanEvict           2986970                       # Transaction distribution (Count)
system.membus.transDist::UpgradeReq                 1                       # Transaction distribution (Count)
system.membus.transDist::ReadExReq             440768                       # Transaction distribution (Count)
system.membus.transDist::ReadExResp            440768                       # Transaction distribution (Count)
system.membus.transDist::ReadSharedReq        3137061                       # Transaction distribution (Count)
system.membus.pktCount_system.l2.mem_side_port::system.mem_ctrls.port     10700433                       # Packet count per connected requestor and responder (Count)
system.membus.pktCount_system.l2.mem_side_port::total     10700433                       # Packet count per connected requestor and responder (Count)
system.membus.pktCount::total                10700433                       # Packet count per connected requestor and responder (Count)
system.membus.pktSize_system.l2.mem_side_port::system.mem_ctrls.port    264680512                       # Cumulative packet size per connected requestor and responder (Byte)
system.membus.pktSize_system.l2.mem_side_port::total    264680512                       # Cumulative packet size per connected requestor and responder (Byte)
system.membus.pktSize::total                264680512                       # Cumulative packet size per connected requestor and responder (Byte)
system.membus.snoops                                0                       # Total snoops (Count)
system.membus.snoopTraffic                          0                       # Total snoop traffic (Byte)
system.membus.snoopFanout::samples            3577830                       # Request fanout histogram (Count)
system.membus.snoopFanout::mean                     0                       # Request fanout histogram (Count)
system.membus.snoopFanout::stdev                    0                       # Request fanout histogram (Count)
system.membus.snoopFanout::underflows               0      0.00%      0.00% # Request fanout histogram (Count)
system.membus.snoopFanout::0                  3577830    100.00%    100.00% # Request fanout histogram (Count)
system.membus.snoopFanout::1                        0      0.00%    100.00% # Request fanout histogram (Count)
system.membus.snoopFanout::overflows                0      0.00%    100.00% # Request fanout histogram (Count)
system.membus.snoopFanout::min_value                0                       # Request fanout histogram (Count)
system.membus.snoopFanout::max_value                0                       # Request fanout histogram (Count)
system.membus.snoopFanout::total              3577830                       # Request fanout histogram (Count)
system.membus.power_state.pwrStateResidencyTicks::UNDEFINED 2164728913721                       # Cumulative time (in ticks) in various power states (Tick)
system.membus.reqLayer2.occupancy         29577686754                       # Layer occupancy (ticks) (Tick)
system.membus.reqLayer2.utilization               0.0                       # Layer utilization (Ratio)
system.membus.respLayer1.occupancy        47058133601                       # Layer occupancy (ticks) (Tick)
system.membus.respLayer1.utilization              0.0                       # Layer utilization (Ratio)
system.membus.snoop_filter.totRequests        7122604                       # Total number of requests made to the snoop filter. (Count)
system.membus.snoop_filter.hitSingleRequests      3544853                       # Number of requests hitting in the snoop filter with a single holder of the requested data. (Count)
system.membus.snoop_filter.hitMultiRequests            0                       # Number of requests hitting in the snoop filter with multiple (>1) holders of the requested data. (Count)
system.membus.snoop_filter.totSnoops                0                       # Total number of snoops made to the snoop filter. (Count)
system.membus.snoop_filter.hitSingleSnoops            0                       # Number of snoops hitting in the snoop filter with a single holder of the requested data. (Count)
system.membus.snoop_filter.hitMultiSnoops            0                       # Number of snoops hitting in the snoop filter with multiple (>1) holders of the requested data. (Count)
system.tol2bus.transDist::ReadResp           33197530                       # Transaction distribution (Count)
system.tol2bus.transDist::WritebackDirty     21535985                       # Transaction distribution (Count)
system.tol2bus.transDist::WritebackClean        15922                       # Transaction distribution (Count)
system.tol2bus.transDist::CleanEvict         16150621                       # Transaction distribution (Count)
system.tol2bus.transDist::UpgradeReq                4                       # Transaction distribution (Count)
system.tol2bus.transDist::UpgradeResp               4                       # Transaction distribution (Count)
system.tol2bus.transDist::ReadExReq            955076                       # Transaction distribution (Count)
system.tol2bus.transDist::ReadExResp           955076                       # Transaction distribution (Count)
system.tol2bus.transDist::ReadCleanReq          16438                       # Transaction distribution (Count)
system.tol2bus.transDist::ReadSharedReq      33181093                       # Transaction distribution (Count)
system.tol2bus.pktCount_system.cpu.icache.mem_side_port::system.l2.cpu_side_port        48791                       # Packet count per connected requestor and responder (Count)
system.tol2bus.pktCount_system.cpu.dcache.mem_side_port::system.l2.cpu_side_port    102408003                       # Packet count per connected requestor and responder (Count)
system.tol2bus.pktCount::total              102456794                       # Packet count per connected requestor and responder (Count)
system.tol2bus.pktSize_system.cpu.icache.mem_side_port::system.l2.cpu_side_port      2070592                       # Cumulative packet size per connected requestor and responder (Byte)
system.tol2bus.pktSize_system.cpu.dcache.mem_side_port::system.l2.cpu_side_port   3527318400                       # Cumulative packet size per connected requestor and responder (Byte)
system.tol2bus.pktSize::total              3529388992                       # Cumulative packet size per connected requestor and responder (Byte)
system.tol2bus.snoops                         3550955                       # Total snoops (Count)
system.tol2bus.snoopTraffic                  35699840                       # Total snoop traffic (Byte)
system.tol2bus.snoopFanout::samples          37703560                       # Request fanout histogram (Count)
system.tol2bus.snoopFanout::mean             0.000169                       # Request fanout histogram (Count)
system.tol2bus.snoopFanout::stdev            0.012998                       # Request fanout histogram (Count)
system.tol2bus.snoopFanout::underflows              0      0.00%      0.00% # Request fanout histogram (Count)
system.tol2bus.snoopFanout::0                37697189     99.98%     99.98% # Request fanout histogram (Count)
system.tol2bus.snoopFanout::1                    6371      0.02%    100.00% # Request fanout histogram (Count)
system.tol2bus.snoopFanout::2                       0      0.00%    100.00% # Request fanout histogram (Count)
system.tol2bus.snoopFanout::3                       0      0.00%    100.00% # Request fanout histogram (Count)
system.tol2bus.snoopFanout::4                       0      0.00%    100.00% # Request fanout histogram (Count)
system.tol2bus.snoopFanout::overflows               0      0.00%    100.00% # Request fanout histogram (Count)
system.tol2bus.snoopFanout::min_value               0                       # Request fanout histogram (Count)
system.tol2bus.snoopFanout::max_value               1                       # Request fanout histogram (Count)
system.tol2bus.snoopFanout::total            37703560                       # Request fanout histogram (Count)
system.tol2bus.power_state.pwrStateResidencyTicks::UNDEFINED 2164728913721                       # Cumulative time (in ticks) in various power states (Tick)
system.tol2bus.reqLayer0.occupancy        34521519948                       # Layer occupancy (ticks) (Tick)
system.tol2bus.reqLayer0.utilization              0.0                       # Layer utilization (Ratio)
system.tol2bus.respLayer0.occupancy          15435903                       # Layer occupancy (ticks) (Tick)
system.tol2bus.respLayer0.utilization             0.0                       # Layer utilization (Ratio)
system.tol2bus.respLayer1.occupancy       32053863943                       # Layer occupancy (ticks) (Tick)
system.tol2bus.respLayer1.utilization             0.0                       # Layer utilization (Ratio)
system.tol2bus.snoop_filter.totRequests      68304190                       # Total number of requests made to the snoop filter. (Count)
system.tol2bus.snoop_filter.hitSingleRequests     34151583                       # Number of requests hitting in the snoop filter with a single holder of the requested data. (Count)
system.tol2bus.snoop_filter.hitMultiRequests          108                       # Number of requests hitting in the snoop filter with multiple (>1) holders of the requested data. (Count)
system.tol2bus.snoop_filter.totSnoops            6259                       # Total number of snoops made to the snoop filter. (Count)
system.tol2bus.snoop_filter.hitSingleSnoops         6259                       # Number of snoops hitting in the snoop filter with a single holder of the requested data. (Count)
system.tol2bus.snoop_filter.hitMultiSnoops            0                       # Number of snoops hitting in the snoop filter with multiple (>1) holders of the requested data. (Count)
system.voltage_domain.voltage                       1                       # Voltage in Volts (Volt)
system.workload.inst.arm                            0                       # number of arm instructions executed (Count)
system.workload.inst.quiesce                        0                       # number of quiesce instructions executed (Count)

---------- End Simulation Statistics   ----------
