
---------- Begin Simulation Statistics ----------
simSeconds                                   0.537765                       # Number of seconds simulated (Second)
simTicks                                 537765376059                       # Number of ticks simulated (Tick)
finalTick                                537765376059                       # Number of ticks from beginning of simulation (restored from checkpoints and never reset) (Tick)
simFreq                                  1000000000000                       # The number of ticks per simulated second ((Tick/Second))
hostSeconds                                   3085.17                       # Real time elapsed on the host (Second)
hostTickRate                                174306632                       # The number of ticks simulated per host second (ticks/s) ((Tick/Second))
hostMemory                                    1793600                       # Number of bytes of host memory used (Byte)
simInsts                                    602888084                       # Number of instructions simulated (Count)
simOps                                     1045799510                       # Number of ops (including micro ops) simulated (Count)
hostInstRate                                   195415                       # Simulator instruction rate (inst/s) ((Count/Second))
hostOpRate                                     338976                       # Simulator op (including micro ops) rate (op/s) ((Count/Second))
system.clk_domain.clock                          2500                       # Clock period in ticks (Tick)
system.cpu0.numCycles                      1718100244                       # Number of cpu cycles simulated (Cycle)
system.cpu0.cpi                              2.849783                       # CPI: cycles per instruction (core level) ((Cycle/Count))
system.cpu0.ipc                              0.350904                       # IPC: instructions per cycle (core level) ((Count/Cycle))
system.cpu0.numWorkItemsStarted                     0                       # Number of work items this cpu started (Count)
system.cpu0.numWorkItemsCompleted                   0                       # Number of work items this cpu completed (Count)
system.cpu0.instsAdded                     1049811056                       # Number of instructions added to the IQ (excludes non-spec) (Count)
system.cpu0.nonSpecInstsAdded                    2431                       # Number of non-speculative instructions added to the IQ (Count)
system.cpu0.instsIssued                    1048832675                       # Number of instructions issued (Count)
system.cpu0.squashedInstsIssued                  5077                       # Number of squashed instructions issued (Count)
system.cpu0.squashedInstsExamined             4013971                       # Number of squashed instructions iterated over during squash; mainly for profiling (Count)
system.cpu0.squashedOperandsExamined          5294116                       # Number of squashed operands that are examined and possibly removed from graph (Count)
system.cpu0.squashedNonSpecRemoved               1084                       # Number of squashed non-spec instructions that were removed (Count)
system.cpu0.numIssuedDist::samples         1712964717                       # Number of insts issued each cycle (Count)
system.cpu0.numIssuedDist::mean              0.612291                       # Number of insts issued each cycle (Count)
system.cpu0.numIssuedDist::stdev             1.454919                       # Number of insts issued each cycle (Count)
system.cpu0.numIssuedDist::underflows               0      0.00%      0.00% # Number of insts issued each cycle (Count)
system.cpu0.numIssuedDist::0               1379325448     80.52%     80.52% # Number of insts issued each cycle (Count)
system.cpu0.numIssuedDist::1                 70932646      4.14%     84.66% # Number of insts issued each cycle (Count)
system.cpu0.numIssuedDist::2                 65529808      3.83%     88.49% # Number of insts issued each cycle (Count)
system.cpu0.numIssuedDist::3                 64769460      3.78%     92.27% # Number of insts issued each cycle (Count)
system.cpu0.numIssuedDist::4                 57537890      3.36%     95.63% # Number of insts issued each cycle (Count)
system.cpu0.numIssuedDist::5                 39352734      2.30%     97.93% # Number of insts issued each cycle (Count)
system.cpu0.numIssuedDist::6                 26230676      1.53%     99.46% # Number of insts issued each cycle (Count)
system.cpu0.numIssuedDist::7                  6055693      0.35%     99.81% # Number of insts issued each cycle (Count)
system.cpu0.numIssuedDist::8                  3230362      0.19%    100.00% # Number of insts issued each cycle (Count)
system.cpu0.numIssuedDist::overflows                0      0.00%    100.00% # Number of insts issued each cycle (Count)
system.cpu0.numIssuedDist::min_value                0                       # Number of insts issued each cycle (Count)
system.cpu0.numIssuedDist::max_value                8                       # Number of insts issued each cycle (Count)
system.cpu0.numIssuedDist::total           1712964717                       # Number of insts issued each cycle (Count)
system.cpu0.statFuBusy::No_OpClass                  0      0.00%      0.00% # attempts to use FU when none available (Count)
system.cpu0.statFuBusy::IntAlu                2490950     39.00%     39.00% # attempts to use FU when none available (Count)
system.cpu0.statFuBusy::IntMult                     0      0.00%     39.00% # attempts to use FU when none available (Count)
system.cpu0.statFuBusy::IntDiv                      0      0.00%     39.00% # attempts to use FU when none available (Count)
system.cpu0.statFuBusy::FloatAdd                    0      0.00%     39.00% # attempts to use FU when none available (Count)
system.cpu0.statFuBusy::FloatCmp                    0      0.00%     39.00% # attempts to use FU when none available (Count)
system.cpu0.statFuBusy::FloatCvt                    0      0.00%     39.00% # attempts to use FU when none available (Count)
system.cpu0.statFuBusy::FloatMult                   0      0.00%     39.00% # attempts to use FU when none available (Count)
system.cpu0.statFuBusy::FloatMultAcc                0      0.00%     39.00% # attempts to use FU when none available (Count)
system.cpu0.statFuBusy::FloatDiv                    0      0.00%     39.00% # attempts to use FU when none available (Count)
system.cpu0.statFuBusy::FloatMisc                   0      0.00%     39.00% # attempts to use FU when none available (Count)
system.cpu0.statFuBusy::FloatSqrt                   0      0.00%     39.00% # attempts to use FU when none available (Count)
system.cpu0.statFuBusy::SimdAdd                     0      0.00%     39.00% # attempts to use FU when none available (Count)
system.cpu0.statFuBusy::SimdAddAcc                  0      0.00%     39.00% # attempts to use FU when none available (Count)
system.cpu0.statFuBusy::SimdAlu                   155      0.00%     39.00% # attempts to use FU when none available (Count)
system.cpu0.statFuBusy::SimdCmp                     0      0.00%     39.00% # attempts to use FU when none available (Count)
system.cpu0.statFuBusy::SimdCvt                     8      0.00%     39.00% # attempts to use FU when none available (Count)
system.cpu0.statFuBusy::SimdMisc                    1      0.00%     39.00% # attempts to use FU when none available (Count)
system.cpu0.statFuBusy::SimdMult                    0      0.00%     39.00% # attempts to use FU when none available (Count)
system.cpu0.statFuBusy::SimdMultAcc                 0      0.00%     39.00% # attempts to use FU when none available (Count)
system.cpu0.statFuBusy::SimdMatMultAcc              0      0.00%     39.00% # attempts to use FU when none available (Count)
system.cpu0.statFuBusy::SimdShift                 384      0.01%     39.01% # attempts to use FU when none available (Count)
system.cpu0.statFuBusy::SimdShiftAcc                0      0.00%     39.01% # attempts to use FU when none available (Count)
system.cpu0.statFuBusy::SimdDiv                     0      0.00%     39.01% # attempts to use FU when none available (Count)
system.cpu0.statFuBusy::SimdSqrt                    0      0.00%     39.01% # attempts to use FU when none available (Count)
system.cpu0.statFuBusy::SimdFloatAdd                0      0.00%     39.01% # attempts to use FU when none available (Count)
system.cpu0.statFuBusy::SimdFloatAlu                0      0.00%     39.01% # attempts to use FU when none available (Count)
system.cpu0.statFuBusy::SimdFloatCmp                0      0.00%     39.01% # attempts to use FU when none available (Count)
system.cpu0.statFuBusy::SimdFloatCvt                0      0.00%     39.01% # attempts to use FU when none available (Count)
system.cpu0.statFuBusy::SimdFloatDiv                0      0.00%     39.01% # attempts to use FU when none available (Count)
system.cpu0.statFuBusy::SimdFloatMisc               0      0.00%     39.01% # attempts to use FU when none available (Count)
system.cpu0.statFuBusy::SimdFloatMult               0      0.00%     39.01% # attempts to use FU when none available (Count)
system.cpu0.statFuBusy::SimdFloatMultAcc            0      0.00%     39.01% # attempts to use FU when none available (Count)
system.cpu0.statFuBusy::SimdFloatMatMultAcc            0      0.00%     39.01% # attempts to use FU when none available (Count)
system.cpu0.statFuBusy::SimdFloatSqrt               0      0.00%     39.01% # attempts to use FU when none available (Count)
system.cpu0.statFuBusy::SimdReduceAdd               0      0.00%     39.01% # attempts to use FU when none available (Count)
system.cpu0.statFuBusy::SimdReduceAlu               0      0.00%     39.01% # attempts to use FU when none available (Count)
system.cpu0.statFuBusy::SimdReduceCmp               0      0.00%     39.01% # attempts to use FU when none available (Count)
system.cpu0.statFuBusy::SimdFloatReduceAdd            0      0.00%     39.01% # attempts to use FU when none available (Count)
system.cpu0.statFuBusy::SimdFloatReduceCmp            0      0.00%     39.01% # attempts to use FU when none available (Count)
system.cpu0.statFuBusy::SimdAes                     0      0.00%     39.01% # attempts to use FU when none available (Count)
system.cpu0.statFuBusy::SimdAesMix                  0      0.00%     39.01% # attempts to use FU when none available (Count)
system.cpu0.statFuBusy::SimdSha1Hash                0      0.00%     39.01% # attempts to use FU when none available (Count)
system.cpu0.statFuBusy::SimdSha1Hash2               0      0.00%     39.01% # attempts to use FU when none available (Count)
system.cpu0.statFuBusy::SimdSha256Hash              0      0.00%     39.01% # attempts to use FU when none available (Count)
system.cpu0.statFuBusy::SimdSha256Hash2             0      0.00%     39.01% # attempts to use FU when none available (Count)
system.cpu0.statFuBusy::SimdShaSigma2               0      0.00%     39.01% # attempts to use FU when none available (Count)
system.cpu0.statFuBusy::SimdShaSigma3               0      0.00%     39.01% # attempts to use FU when none available (Count)
system.cpu0.statFuBusy::SimdPredAlu                 0      0.00%     39.01% # attempts to use FU when none available (Count)
system.cpu0.statFuBusy::Matrix                      0      0.00%     39.01% # attempts to use FU when none available (Count)
system.cpu0.statFuBusy::MatrixMov                   0      0.00%     39.01% # attempts to use FU when none available (Count)
system.cpu0.statFuBusy::MatrixOP                    0      0.00%     39.01% # attempts to use FU when none available (Count)
system.cpu0.statFuBusy::MemRead               3354503     52.52%     91.52% # attempts to use FU when none available (Count)
system.cpu0.statFuBusy::MemWrite               516716      8.09%     99.61% # attempts to use FU when none available (Count)
system.cpu0.statFuBusy::FloatMemRead            22716      0.36%     99.97% # attempts to use FU when none available (Count)
system.cpu0.statFuBusy::FloatMemWrite            1971      0.03%    100.00% # attempts to use FU when none available (Count)
system.cpu0.statFuBusy::IprAccess                   0      0.00%    100.00% # attempts to use FU when none available (Count)
system.cpu0.statFuBusy::InstPrefetch                0      0.00%    100.00% # attempts to use FU when none available (Count)
system.cpu0.statFuBusy::SimdUnitStrideLoad            0      0.00%    100.00% # attempts to use FU when none available (Count)
system.cpu0.statFuBusy::SimdUnitStrideStore            0      0.00%    100.00% # attempts to use FU when none available (Count)
system.cpu0.statFuBusy::SimdUnitStrideMaskLoad            0      0.00%    100.00% # attempts to use FU when none available (Count)
system.cpu0.statFuBusy::SimdUnitStrideMaskStore            0      0.00%    100.00% # attempts to use FU when none available (Count)
system.cpu0.statFuBusy::SimdStridedLoad             0      0.00%    100.00% # attempts to use FU when none available (Count)
system.cpu0.statFuBusy::SimdStridedStore            0      0.00%    100.00% # attempts to use FU when none available (Count)
system.cpu0.statFuBusy::SimdIndexedLoad             0      0.00%    100.00% # attempts to use FU when none available (Count)
system.cpu0.statFuBusy::SimdIndexedStore            0      0.00%    100.00% # attempts to use FU when none available (Count)
system.cpu0.statFuBusy::SimdWholeRegisterLoad            0      0.00%    100.00% # attempts to use FU when none available (Count)
system.cpu0.statFuBusy::SimdWholeRegisterStore            0      0.00%    100.00% # attempts to use FU when none available (Count)
system.cpu0.statFuBusy::SimdUnitStrideFaultOnlyFirstLoad            0      0.00%    100.00% # attempts to use FU when none available (Count)
system.cpu0.statFuBusy::SimdUnitStrideSegmentedLoad            0      0.00%    100.00% # attempts to use FU when none available (Count)
system.cpu0.statFuBusy::SimdUnitStrideSegmentedStore            0      0.00%    100.00% # attempts to use FU when none available (Count)
system.cpu0.statFuBusy::SimdExt                     0      0.00%    100.00% # attempts to use FU when none available (Count)
system.cpu0.statFuBusy::SimdFloatExt                0      0.00%    100.00% # attempts to use FU when none available (Count)
system.cpu0.statFuBusy::SimdConfig                  0      0.00%    100.00% # attempts to use FU when none available (Count)
system.cpu0.statIssuedInstType_0::No_OpClass        46777      0.00%      0.00% # Number of instructions issued per FU type, per thread (Count)
system.cpu0.statIssuedInstType_0::IntAlu    656168460     62.56%     62.57% # Number of instructions issued per FU type, per thread (Count)
system.cpu0.statIssuedInstType_0::IntMult      5975124      0.57%     63.14% # Number of instructions issued per FU type, per thread (Count)
system.cpu0.statIssuedInstType_0::IntDiv         4438      0.00%     63.14% # Number of instructions issued per FU type, per thread (Count)
system.cpu0.statIssuedInstType_0::FloatAdd     16225305      1.55%     64.68% # Number of instructions issued per FU type, per thread (Count)
system.cpu0.statIssuedInstType_0::FloatCmp            0      0.00%     64.68% # Number of instructions issued per FU type, per thread (Count)
system.cpu0.statIssuedInstType_0::FloatCvt          650      0.00%     64.68% # Number of instructions issued per FU type, per thread (Count)
system.cpu0.statIssuedInstType_0::FloatMult            0      0.00%     64.68% # Number of instructions issued per FU type, per thread (Count)
system.cpu0.statIssuedInstType_0::FloatMultAcc            0      0.00%     64.68% # Number of instructions issued per FU type, per thread (Count)
system.cpu0.statIssuedInstType_0::FloatDiv            0      0.00%     64.68% # Number of instructions issued per FU type, per thread (Count)
system.cpu0.statIssuedInstType_0::FloatMisc            0      0.00%     64.68% # Number of instructions issued per FU type, per thread (Count)
system.cpu0.statIssuedInstType_0::FloatSqrt            0      0.00%     64.68% # Number of instructions issued per FU type, per thread (Count)
system.cpu0.statIssuedInstType_0::SimdAdd          804      0.00%     64.68% # Number of instructions issued per FU type, per thread (Count)
system.cpu0.statIssuedInstType_0::SimdAddAcc            0      0.00%     64.68% # Number of instructions issued per FU type, per thread (Count)
system.cpu0.statIssuedInstType_0::SimdAlu      7206206      0.69%     65.37% # Number of instructions issued per FU type, per thread (Count)
system.cpu0.statIssuedInstType_0::SimdCmp            0      0.00%     65.37% # Number of instructions issued per FU type, per thread (Count)
system.cpu0.statIssuedInstType_0::SimdCvt         7299      0.00%     65.37% # Number of instructions issued per FU type, per thread (Count)
system.cpu0.statIssuedInstType_0::SimdMisc      5425181      0.52%     65.89% # Number of instructions issued per FU type, per thread (Count)
system.cpu0.statIssuedInstType_0::SimdMult            0      0.00%     65.89% # Number of instructions issued per FU type, per thread (Count)
system.cpu0.statIssuedInstType_0::SimdMultAcc            0      0.00%     65.89% # Number of instructions issued per FU type, per thread (Count)
system.cpu0.statIssuedInstType_0::SimdMatMultAcc            0      0.00%     65.89% # Number of instructions issued per FU type, per thread (Count)
system.cpu0.statIssuedInstType_0::SimdShift         1186      0.00%     65.89% # Number of instructions issued per FU type, per thread (Count)
system.cpu0.statIssuedInstType_0::SimdShiftAcc            0      0.00%     65.89% # Number of instructions issued per FU type, per thread (Count)
system.cpu0.statIssuedInstType_0::SimdDiv            0      0.00%     65.89% # Number of instructions issued per FU type, per thread (Count)
system.cpu0.statIssuedInstType_0::SimdSqrt            0      0.00%     65.89% # Number of instructions issued per FU type, per thread (Count)
system.cpu0.statIssuedInstType_0::SimdFloatAdd      3591697      0.34%     66.23% # Number of instructions issued per FU type, per thread (Count)
system.cpu0.statIssuedInstType_0::SimdFloatAlu            0      0.00%     66.23% # Number of instructions issued per FU type, per thread (Count)
system.cpu0.statIssuedInstType_0::SimdFloatCmp            0      0.00%     66.23% # Number of instructions issued per FU type, per thread (Count)
system.cpu0.statIssuedInstType_0::SimdFloatCvt      7199596      0.69%     66.92% # Number of instructions issued per FU type, per thread (Count)
system.cpu0.statIssuedInstType_0::SimdFloatDiv      1793114      0.17%     67.09% # Number of instructions issued per FU type, per thread (Count)
system.cpu0.statIssuedInstType_0::SimdFloatMisc            0      0.00%     67.09% # Number of instructions issued per FU type, per thread (Count)
system.cpu0.statIssuedInstType_0::SimdFloatMult      1799416      0.17%     67.26% # Number of instructions issued per FU type, per thread (Count)
system.cpu0.statIssuedInstType_0::SimdFloatMultAcc            0      0.00%     67.26% # Number of instructions issued per FU type, per thread (Count)
system.cpu0.statIssuedInstType_0::SimdFloatMatMultAcc            0      0.00%     67.26% # Number of instructions issued per FU type, per thread (Count)
system.cpu0.statIssuedInstType_0::SimdFloatSqrt            4      0.00%     67.26% # Number of instructions issued per FU type, per thread (Count)
system.cpu0.statIssuedInstType_0::SimdReduceAdd            0      0.00%     67.26% # Number of instructions issued per FU type, per thread (Count)
system.cpu0.statIssuedInstType_0::SimdReduceAlu            0      0.00%     67.26% # Number of instructions issued per FU type, per thread (Count)
system.cpu0.statIssuedInstType_0::SimdReduceCmp            0      0.00%     67.26% # Number of instructions issued per FU type, per thread (Count)
system.cpu0.statIssuedInstType_0::SimdFloatReduceAdd            0      0.00%     67.26% # Number of instructions issued per FU type, per thread (Count)
system.cpu0.statIssuedInstType_0::SimdFloatReduceCmp            0      0.00%     67.26% # Number of instructions issued per FU type, per thread (Count)
system.cpu0.statIssuedInstType_0::SimdAes            0      0.00%     67.26% # Number of instructions issued per FU type, per thread (Count)
system.cpu0.statIssuedInstType_0::SimdAesMix            0      0.00%     67.26% # Number of instructions issued per FU type, per thread (Count)
system.cpu0.statIssuedInstType_0::SimdSha1Hash            0      0.00%     67.26% # Number of instructions issued per FU type, per thread (Count)
system.cpu0.statIssuedInstType_0::SimdSha1Hash2            0      0.00%     67.26% # Number of instructions issued per FU type, per thread (Count)
system.cpu0.statIssuedInstType_0::SimdSha256Hash            0      0.00%     67.26% # Number of instructions issued per FU type, per thread (Count)
system.cpu0.statIssuedInstType_0::SimdSha256Hash2            0      0.00%     67.26% # Number of instructions issued per FU type, per thread (Count)
system.cpu0.statIssuedInstType_0::SimdShaSigma2            0      0.00%     67.26% # Number of instructions issued per FU type, per thread (Count)
system.cpu0.statIssuedInstType_0::SimdShaSigma3            0      0.00%     67.26% # Number of instructions issued per FU type, per thread (Count)
system.cpu0.statIssuedInstType_0::SimdPredAlu            0      0.00%     67.26% # Number of instructions issued per FU type, per thread (Count)
system.cpu0.statIssuedInstType_0::Matrix            0      0.00%     67.26% # Number of instructions issued per FU type, per thread (Count)
system.cpu0.statIssuedInstType_0::MatrixMov            0      0.00%     67.26% # Number of instructions issued per FU type, per thread (Count)
system.cpu0.statIssuedInstType_0::MatrixOP            0      0.00%     67.26% # Number of instructions issued per FU type, per thread (Count)
system.cpu0.statIssuedInstType_0::MemRead    196691940     18.75%     86.01% # Number of instructions issued per FU type, per thread (Count)
system.cpu0.statIssuedInstType_0::MemWrite    121416785     11.58%     97.59% # Number of instructions issued per FU type, per thread (Count)
system.cpu0.statIssuedInstType_0::FloatMemRead     18045306      1.72%     99.31% # Number of instructions issued per FU type, per thread (Count)
system.cpu0.statIssuedInstType_0::FloatMemWrite      7233387      0.69%    100.00% # Number of instructions issued per FU type, per thread (Count)
system.cpu0.statIssuedInstType_0::IprAccess            0      0.00%    100.00% # Number of instructions issued per FU type, per thread (Count)
system.cpu0.statIssuedInstType_0::InstPrefetch            0      0.00%    100.00% # Number of instructions issued per FU type, per thread (Count)
system.cpu0.statIssuedInstType_0::SimdUnitStrideLoad            0      0.00%    100.00% # Number of instructions issued per FU type, per thread (Count)
system.cpu0.statIssuedInstType_0::SimdUnitStrideStore            0      0.00%    100.00% # Number of instructions issued per FU type, per thread (Count)
system.cpu0.statIssuedInstType_0::SimdUnitStrideMaskLoad            0      0.00%    100.00% # Number of instructions issued per FU type, per thread (Count)
system.cpu0.statIssuedInstType_0::SimdUnitStrideMaskStore            0      0.00%    100.00% # Number of instructions issued per FU type, per thread (Count)
system.cpu0.statIssuedInstType_0::SimdStridedLoad            0      0.00%    100.00% # Number of instructions issued per FU type, per thread (Count)
system.cpu0.statIssuedInstType_0::SimdStridedStore            0      0.00%    100.00% # Number of instructions issued per FU type, per thread (Count)
system.cpu0.statIssuedInstType_0::SimdIndexedLoad            0      0.00%    100.00% # Number of instructions issued per FU type, per thread (Count)
system.cpu0.statIssuedInstType_0::SimdIndexedStore            0      0.00%    100.00% # Number of instructions issued per FU type, per thread (Count)
system.cpu0.statIssuedInstType_0::SimdWholeRegisterLoad            0      0.00%    100.00% # Number of instructions issued per FU type, per thread (Count)
system.cpu0.statIssuedInstType_0::SimdWholeRegisterStore            0      0.00%    100.00% # Number of instructions issued per FU type, per thread (Count)
system.cpu0.statIssuedInstType_0::SimdUnitStrideFaultOnlyFirstLoad            0      0.00%    100.00% # Number of instructions issued per FU type, per thread (Count)
system.cpu0.statIssuedInstType_0::SimdUnitStrideSegmentedLoad            0      0.00%    100.00% # Number of instructions issued per FU type, per thread (Count)
system.cpu0.statIssuedInstType_0::SimdUnitStrideSegmentedStore            0      0.00%    100.00% # Number of instructions issued per FU type, per thread (Count)
system.cpu0.statIssuedInstType_0::SimdExt            0      0.00%    100.00% # Number of instructions issued per FU type, per thread (Count)
system.cpu0.statIssuedInstType_0::SimdFloatExt            0      0.00%    100.00% # Number of instructions issued per FU type, per thread (Count)
system.cpu0.statIssuedInstType_0::SimdConfig            0      0.00%    100.00% # Number of instructions issued per FU type, per thread (Count)
system.cpu0.statIssuedInstType_0::total    1048832675                       # Number of instructions issued per FU type, per thread (Count)
system.cpu0.issueRate                        0.610461                       # Inst issue rate ((Count/Cycle))
system.cpu0.fuBusy                            6387404                       # FU busy when requested (Count)
system.cpu0.fuBusyRate                       0.006090                       # FU busy rate (busy events/executed inst) ((Count/Count))
system.cpu0.intInstQueueReads              3679931571                       # Number of integer instruction queue reads (Count)
system.cpu0.intInstQueueWrites              985174538                       # Number of integer instruction queue writes (Count)
system.cpu0.intInstQueueWakeupAccesses      979972995                       # Number of integer instruction queue wakeup accesses (Count)
system.cpu0.fpInstQueueReads                137090977                       # Number of floating instruction queue reads (Count)
system.cpu0.fpInstQueueWrites                68673093                       # Number of floating instruction queue writes (Count)
system.cpu0.fpInstQueueWakeupAccesses        68527069                       # Number of floating instruction queue wakeup accesses (Count)
system.cpu0.vecInstQueueReads                       0                       # Number of vector instruction queue reads (Count)
system.cpu0.vecInstQueueWrites                      0                       # Number of vector instruction queue writes (Count)
system.cpu0.vecInstQueueWakeupAccesses              0                       # Number of vector instruction queue wakeup accesses (Count)
system.cpu0.intAluAccesses                  986615201                       # Number of integer alu accesses (Count)
system.cpu0.fpAluAccesses                    68558101                       # Number of floating point alu accesses (Count)
system.cpu0.vecAluAccesses                          0                       # Number of vector alu accesses (Count)
system.cpu0.numSquashedInsts                   259089                       # Number of squashed instructions skipped in execute (Count)
system.cpu0.numSwp                                  0                       # Number of swp insts executed (Count)
system.cpu0.timesIdled                           5787                       # Number of times that the entire CPU went into an idle state and unscheduled itself (Count)
system.cpu0.idleCycles                        5135527                       # Total number of cycles that the CPU has spent unscheduled due to idling (Cycle)
system.cpu0.MemDepUnit__0.insertedLoads     214914205                       # Number of loads inserted to the mem dependence unit. (Count)
system.cpu0.MemDepUnit__0.insertedStores    128793967                       # Number of stores inserted to the mem dependence unit. (Count)
system.cpu0.MemDepUnit__0.conflictingLoads     87429695                       # Number of conflicting loads. (Count)
system.cpu0.MemDepUnit__0.conflictingStores     24772502                       # Number of conflicting stores. (Count)
system.cpu0.MemDepUnit__1.insertedLoads             0                       # Number of loads inserted to the mem dependence unit. (Count)
system.cpu0.MemDepUnit__1.insertedStores            0                       # Number of stores inserted to the mem dependence unit. (Count)
system.cpu0.MemDepUnit__1.conflictingLoads            0                       # Number of conflicting loads. (Count)
system.cpu0.MemDepUnit__1.conflictingStores            0                       # Number of conflicting stores. (Count)
system.cpu0.MemDepUnit__2.insertedLoads             0                       # Number of loads inserted to the mem dependence unit. (Count)
system.cpu0.MemDepUnit__2.insertedStores            0                       # Number of stores inserted to the mem dependence unit. (Count)
system.cpu0.MemDepUnit__2.conflictingLoads            0                       # Number of conflicting loads. (Count)
system.cpu0.MemDepUnit__2.conflictingStores            0                       # Number of conflicting stores. (Count)
system.cpu0.MemDepUnit__3.insertedLoads             0                       # Number of loads inserted to the mem dependence unit. (Count)
system.cpu0.MemDepUnit__3.insertedStores            0                       # Number of stores inserted to the mem dependence unit. (Count)
system.cpu0.MemDepUnit__3.conflictingLoads            0                       # Number of conflicting loads. (Count)
system.cpu0.MemDepUnit__3.conflictingStores            0                       # Number of conflicting stores. (Count)
system.cpu0.branchPred.lookups_0::NoBranch            3      0.00%      0.00% # Number of BP lookups (Count)
system.cpu0.branchPred.lookups_0::Return     29716306     34.12%     34.12% # Number of BP lookups (Count)
system.cpu0.branchPred.lookups_0::CallDirect     29552902     33.93%     68.04% # Number of BP lookups (Count)
system.cpu0.branchPred.lookups_0::CallIndirect         2863      0.00%     68.05% # Number of BP lookups (Count)
system.cpu0.branchPred.lookups_0::DirectCond     25522332     29.30%     97.35% # Number of BP lookups (Count)
system.cpu0.branchPred.lookups_0::DirectUncond       468386      0.54%     97.88% # Number of BP lookups (Count)
system.cpu0.branchPred.lookups_0::IndirectCond            0      0.00%     97.88% # Number of BP lookups (Count)
system.cpu0.branchPred.lookups_0::IndirectUncond      1843009      2.12%    100.00% # Number of BP lookups (Count)
system.cpu0.branchPred.lookups_0::total      87105801                       # Number of BP lookups (Count)
system.cpu0.branchPred.squashes_0::NoBranch            3      0.00%      0.00% # Number of branches that got squashed (completely removed) as an earlier branch was mispredicted. (Count)
system.cpu0.branchPred.squashes_0::Return       260939     37.24%     37.24% # Number of branches that got squashed (completely removed) as an earlier branch was mispredicted. (Count)
system.cpu0.branchPred.squashes_0::CallDirect       100035     14.28%     51.52% # Number of branches that got squashed (completely removed) as an earlier branch was mispredicted. (Count)
system.cpu0.branchPred.squashes_0::CallIndirect          359      0.05%     51.57% # Number of branches that got squashed (completely removed) as an earlier branch was mispredicted. (Count)
system.cpu0.branchPred.squashes_0::DirectCond       294047     41.97%     93.54% # Number of branches that got squashed (completely removed) as an earlier branch was mispredicted. (Count)
system.cpu0.branchPred.squashes_0::DirectUncond        35953      5.13%     98.67% # Number of branches that got squashed (completely removed) as an earlier branch was mispredicted. (Count)
system.cpu0.branchPred.squashes_0::IndirectCond            0      0.00%     98.67% # Number of branches that got squashed (completely removed) as an earlier branch was mispredicted. (Count)
system.cpu0.branchPred.squashes_0::IndirectUncond         9305      1.33%    100.00% # Number of branches that got squashed (completely removed) as an earlier branch was mispredicted. (Count)
system.cpu0.branchPred.squashes_0::total       700641                       # Number of branches that got squashed (completely removed) as an earlier branch was mispredicted. (Count)
system.cpu0.branchPred.corrected_0::NoBranch            1      0.00%      0.00% # Number of branches that got corrected but not yet commited. Branches get corrected by decode or after execute. Also a branch misprediction can be detected out-of-order. Therefore, a corrected branch might not end up beeing committed in case an even earlier branch was mispredicted (Count)
system.cpu0.branchPred.corrected_0::Return          175      0.17%      0.17% # Number of branches that got corrected but not yet commited. Branches get corrected by decode or after execute. Also a branch misprediction can be detected out-of-order. Therefore, a corrected branch might not end up beeing committed in case an even earlier branch was mispredicted (Count)
system.cpu0.branchPred.corrected_0::CallDirect         2533      2.42%      2.58% # Number of branches that got corrected but not yet commited. Branches get corrected by decode or after execute. Also a branch misprediction can be detected out-of-order. Therefore, a corrected branch might not end up beeing committed in case an even earlier branch was mispredicted (Count)
system.cpu0.branchPred.corrected_0::CallIndirect          185      0.18%      2.76% # Number of branches that got corrected but not yet commited. Branches get corrected by decode or after execute. Also a branch misprediction can be detected out-of-order. Therefore, a corrected branch might not end up beeing committed in case an even earlier branch was mispredicted (Count)
system.cpu0.branchPred.corrected_0::DirectCond        99152     94.57%     97.33% # Number of branches that got corrected but not yet commited. Branches get corrected by decode or after execute. Also a branch misprediction can be detected out-of-order. Therefore, a corrected branch might not end up beeing committed in case an even earlier branch was mispredicted (Count)
system.cpu0.branchPred.corrected_0::DirectUncond         2352      2.24%     99.58% # Number of branches that got corrected but not yet commited. Branches get corrected by decode or after execute. Also a branch misprediction can be detected out-of-order. Therefore, a corrected branch might not end up beeing committed in case an even earlier branch was mispredicted (Count)
system.cpu0.branchPred.corrected_0::IndirectCond            0      0.00%     99.58% # Number of branches that got corrected but not yet commited. Branches get corrected by decode or after execute. Also a branch misprediction can be detected out-of-order. Therefore, a corrected branch might not end up beeing committed in case an even earlier branch was mispredicted (Count)
system.cpu0.branchPred.corrected_0::IndirectUncond          445      0.42%    100.00% # Number of branches that got corrected but not yet commited. Branches get corrected by decode or after execute. Also a branch misprediction can be detected out-of-order. Therefore, a corrected branch might not end up beeing committed in case an even earlier branch was mispredicted (Count)
system.cpu0.branchPred.corrected_0::total       104843                       # Number of branches that got corrected but not yet commited. Branches get corrected by decode or after execute. Also a branch misprediction can be detected out-of-order. Therefore, a corrected branch might not end up beeing committed in case an even earlier branch was mispredicted (Count)
system.cpu0.branchPred.earlyResteers_0::NoBranch            0                       # Number of branches that got redirected after decode. (Count)
system.cpu0.branchPred.earlyResteers_0::Return            0                       # Number of branches that got redirected after decode. (Count)
system.cpu0.branchPred.earlyResteers_0::CallDirect            0                       # Number of branches that got redirected after decode. (Count)
system.cpu0.branchPred.earlyResteers_0::CallIndirect            0                       # Number of branches that got redirected after decode. (Count)
system.cpu0.branchPred.earlyResteers_0::DirectCond            0                       # Number of branches that got redirected after decode. (Count)
system.cpu0.branchPred.earlyResteers_0::DirectUncond            0                       # Number of branches that got redirected after decode. (Count)
system.cpu0.branchPred.earlyResteers_0::IndirectCond            0                       # Number of branches that got redirected after decode. (Count)
system.cpu0.branchPred.earlyResteers_0::IndirectUncond            0                       # Number of branches that got redirected after decode. (Count)
system.cpu0.branchPred.earlyResteers_0::total            0                       # Number of branches that got redirected after decode. (Count)
system.cpu0.branchPred.committed_0::NoBranch            0      0.00%      0.00% # Number of branches finally committed  (Count)
system.cpu0.branchPred.committed_0::Return     29455367     34.09%     34.09% # Number of branches finally committed  (Count)
system.cpu0.branchPred.committed_0::CallDirect     29452867     34.09%     68.18% # Number of branches finally committed  (Count)
system.cpu0.branchPred.committed_0::CallIndirect         2504      0.00%     68.18% # Number of branches finally committed  (Count)
system.cpu0.branchPred.committed_0::DirectCond     25228284     29.20%     97.38% # Number of branches finally committed  (Count)
system.cpu0.branchPred.committed_0::DirectUncond       432433      0.50%     97.88% # Number of branches finally committed  (Count)
system.cpu0.branchPred.committed_0::IndirectCond            0      0.00%     97.88% # Number of branches finally committed  (Count)
system.cpu0.branchPred.committed_0::IndirectUncond      1833704      2.12%    100.00% # Number of branches finally committed  (Count)
system.cpu0.branchPred.committed_0::total     86405159                       # Number of branches finally committed  (Count)
system.cpu0.branchPred.mispredicted_0::NoBranch            0      0.00%      0.00% # Number of committed branches that were mispredicted. (Count)
system.cpu0.branchPred.mispredicted_0::Return          134      0.13%      0.13% # Number of committed branches that were mispredicted. (Count)
system.cpu0.branchPred.mispredicted_0::CallDirect         2092      2.08%      2.21% # Number of committed branches that were mispredicted. (Count)
system.cpu0.branchPred.mispredicted_0::CallIndirect          170      0.17%      2.38% # Number of committed branches that were mispredicted. (Count)
system.cpu0.branchPred.mispredicted_0::DirectCond        96297     95.54%     97.92% # Number of committed branches that were mispredicted. (Count)
system.cpu0.branchPred.mispredicted_0::DirectUncond         1698      1.68%     99.60% # Number of committed branches that were mispredicted. (Count)
system.cpu0.branchPred.mispredicted_0::IndirectCond            0      0.00%     99.60% # Number of committed branches that were mispredicted. (Count)
system.cpu0.branchPred.mispredicted_0::IndirectUncond          400      0.40%    100.00% # Number of committed branches that were mispredicted. (Count)
system.cpu0.branchPred.mispredicted_0::total       100791                       # Number of committed branches that were mispredicted. (Count)
system.cpu0.branchPred.targetProvider_0::NoTarget     11784383     13.53%     13.53% # The component providing the target for taken branches (Count)
system.cpu0.branchPred.targetProvider_0::BTB     43763434     50.24%     63.77% # The component providing the target for taken branches (Count)
system.cpu0.branchPred.targetProvider_0::RAS     29716301     34.12%     97.89% # The component providing the target for taken branches (Count)
system.cpu0.branchPred.targetProvider_0::Indirect      1841683      2.11%    100.00% # The component providing the target for taken branches (Count)
system.cpu0.branchPred.targetProvider_0::total     87105801                       # The component providing the target for taken branches (Count)
system.cpu0.branchPred.targetWrong_0::NoBranch        79931     76.68%     76.68% # Number of branches where the target was incorrect or not available at prediction time. (Count)
system.cpu0.branchPred.targetWrong_0::Return        24106     23.13%     99.80% # Number of branches where the target was incorrect or not available at prediction time. (Count)
system.cpu0.branchPred.targetWrong_0::CallDirect          175      0.17%     99.97% # Number of branches where the target was incorrect or not available at prediction time. (Count)
system.cpu0.branchPred.targetWrong_0::CallIndirect           30      0.03%    100.00% # Number of branches where the target was incorrect or not available at prediction time. (Count)
system.cpu0.branchPred.targetWrong_0::DirectCond            0      0.00%    100.00% # Number of branches where the target was incorrect or not available at prediction time. (Count)
system.cpu0.branchPred.targetWrong_0::DirectUncond            0      0.00%    100.00% # Number of branches where the target was incorrect or not available at prediction time. (Count)
system.cpu0.branchPred.targetWrong_0::IndirectCond            0      0.00%    100.00% # Number of branches where the target was incorrect or not available at prediction time. (Count)
system.cpu0.branchPred.targetWrong_0::IndirectUncond            0      0.00%    100.00% # Number of branches where the target was incorrect or not available at prediction time. (Count)
system.cpu0.branchPred.targetWrong_0::total       104242                       # Number of branches where the target was incorrect or not available at prediction time. (Count)
system.cpu0.branchPred.condPredicted         25522335                       # Number of conditional branches predicted (Count)
system.cpu0.branchPred.condPredictedTaken     13755225                       # Number of conditional branches predicted as taken (Count)
system.cpu0.branchPred.condIncorrect           104843                       # Number of conditional branches incorrect (Count)
system.cpu0.branchPred.predTakenBTBMiss          7610                       # Number of branches predicted taken but missed in BTB (Count)
system.cpu0.branchPred.NotTakenMispredicted        81526                       # Number branches predicted 'not taken' but turned out to be taken (Count)
system.cpu0.branchPred.TakenMispredicted        23317                       # Number branches predicted taken but are actually not taken (Count)
system.cpu0.branchPred.BTBLookups            87105801                       # Number of BTB lookups (Count)
system.cpu0.branchPred.BTBUpdates               80720                       # Number of BTB updates (Count)
system.cpu0.branchPred.BTBHits               47893928                       # Number of BTB hits (Count)
system.cpu0.branchPred.BTBHitRatio           0.549836                       # BTB Hit Ratio (Ratio)
system.cpu0.branchPred.BTBMispredicted           8578                       # Number BTB mispredictions. No target found or target wrong (Count)
system.cpu0.branchPred.indirectLookups        1845872                       # Number of indirect predictor lookups. (Count)
system.cpu0.branchPred.indirectHits           1841683                       # Number of indirect target hits. (Count)
system.cpu0.branchPred.indirectMisses            4189                       # Number of indirect misses. (Count)
system.cpu0.branchPred.indirectMispredicted            0                       # Number of mispredicted indirect branches. (Count)
system.cpu0.branchPred.btb.lookups::NoBranch            3      0.00%      0.00% # Number of BTB lookups (Count)
system.cpu0.branchPred.btb.lookups::Return     29716306     34.12%     34.12% # Number of BTB lookups (Count)
system.cpu0.branchPred.btb.lookups::CallDirect     29552902     33.93%     68.04% # Number of BTB lookups (Count)
system.cpu0.branchPred.btb.lookups::CallIndirect         2863      0.00%     68.05% # Number of BTB lookups (Count)
system.cpu0.branchPred.btb.lookups::DirectCond     25522332     29.30%     97.35% # Number of BTB lookups (Count)
system.cpu0.branchPred.btb.lookups::DirectUncond       468386      0.54%     97.88% # Number of BTB lookups (Count)
system.cpu0.branchPred.btb.lookups::IndirectCond            0      0.00%     97.88% # Number of BTB lookups (Count)
system.cpu0.branchPred.btb.lookups::IndirectUncond      1843009      2.12%    100.00% # Number of BTB lookups (Count)
system.cpu0.branchPred.btb.lookups::total     87105801                       # Number of BTB lookups (Count)
system.cpu0.branchPred.btb.misses::NoBranch            3      0.00%      0.00% # Number of BTB misses (Count)
system.cpu0.branchPred.btb.misses::Return     29715851     75.78%     75.78% # Number of BTB misses (Count)
system.cpu0.branchPred.btb.misses::CallDirect         3521      0.01%     75.79% # Number of BTB misses (Count)
system.cpu0.branchPred.btb.misses::CallIndirect         2727      0.01%     75.80% # Number of BTB misses (Count)
system.cpu0.branchPred.btb.misses::DirectCond      7643841     19.49%     95.29% # Number of BTB misses (Count)
system.cpu0.branchPred.btb.misses::DirectUncond         2921      0.01%     95.30% # Number of BTB misses (Count)
system.cpu0.branchPred.btb.misses::IndirectCond            0      0.00%     95.30% # Number of BTB misses (Count)
system.cpu0.branchPred.btb.misses::IndirectUncond      1843009      4.70%    100.00% # Number of BTB misses (Count)
system.cpu0.branchPred.btb.misses::total     39211873                       # Number of BTB misses (Count)
system.cpu0.branchPred.btb.updates::NoBranch            0      0.00%      0.00% # Number of BTB updates (Count)
system.cpu0.branchPred.btb.updates::Return            0      0.00%      0.00% # Number of BTB updates (Count)
system.cpu0.branchPred.btb.updates::CallDirect         2533      3.14%      3.14% # Number of BTB updates (Count)
system.cpu0.branchPred.btb.updates::CallIndirect            0      0.00%      3.14% # Number of BTB updates (Count)
system.cpu0.branchPred.btb.updates::DirectCond        75835     93.95%     97.09% # Number of BTB updates (Count)
system.cpu0.branchPred.btb.updates::DirectUncond         2352      2.91%    100.00% # Number of BTB updates (Count)
system.cpu0.branchPred.btb.updates::IndirectCond            0      0.00%    100.00% # Number of BTB updates (Count)
system.cpu0.branchPred.btb.updates::IndirectUncond            0      0.00%    100.00% # Number of BTB updates (Count)
system.cpu0.branchPred.btb.updates::total        80720                       # Number of BTB updates (Count)
system.cpu0.branchPred.btb.mispredict::NoBranch            0      0.00%      0.00% # Number of BTB mispredictions. No target found or target wrong. (Count)
system.cpu0.branchPred.btb.mispredict::Return            0      0.00%      0.00% # Number of BTB mispredictions. No target found or target wrong. (Count)
system.cpu0.branchPred.btb.mispredict::CallDirect         2533      3.14%      3.14% # Number of BTB mispredictions. No target found or target wrong. (Count)
system.cpu0.branchPred.btb.mispredict::CallIndirect            0      0.00%      3.14% # Number of BTB mispredictions. No target found or target wrong. (Count)
system.cpu0.branchPred.btb.mispredict::DirectCond        75835     93.95%     97.09% # Number of BTB mispredictions. No target found or target wrong. (Count)
system.cpu0.branchPred.btb.mispredict::DirectUncond         2352      2.91%    100.00% # Number of BTB mispredictions. No target found or target wrong. (Count)
system.cpu0.branchPred.btb.mispredict::IndirectCond            0      0.00%    100.00% # Number of BTB mispredictions. No target found or target wrong. (Count)
system.cpu0.branchPred.btb.mispredict::IndirectUncond            0      0.00%    100.00% # Number of BTB mispredictions. No target found or target wrong. (Count)
system.cpu0.branchPred.btb.mispredict::total        80720                       # Number of BTB mispredictions. No target found or target wrong. (Count)
system.cpu0.branchPred.btb.power_state.pwrStateResidencyTicks::UNDEFINED 537765376059                       # Cumulative time (in ticks) in various power states (Tick)
system.cpu0.branchPred.indirectBranchPred.lookups      1845872                       # Number of lookups (Count)
system.cpu0.branchPred.indirectBranchPred.hits      1841683                       # Number of hits of a tag (Count)
system.cpu0.branchPred.indirectBranchPred.misses         4189                       # Number of misses (Count)
system.cpu0.branchPred.indirectBranchPred.targetRecords          630                       # Number of targets that where recorded/installed in the cache (Count)
system.cpu0.branchPred.indirectBranchPred.indirectRecords      1846502                       # Number of indirect branches/calls recorded in the indirect hist (Count)
system.cpu0.branchPred.indirectBranchPred.speculativeOverflows            0                       # Number of times more than the allowed capacity for speculative branches/calls where in flight and destroy the path history (Count)
system.cpu0.branchPred.ras.pushes            29816704                       # Number of times a PC was pushed onto the RAS (Count)
system.cpu0.branchPred.ras.pops              29816700                       # Number of times a PC was poped from the RAS (Count)
system.cpu0.branchPred.ras.squashes            361333                       # Number of times the stack operation was squashed due to wrong speculation. (Count)
system.cpu0.branchPred.ras.used              29455367                       # Number of times the RAS is the provider (Count)
system.cpu0.branchPred.ras.correct           29455233                       # Number of times the RAS is the provider and the prediction is correct (Count)
system.cpu0.branchPred.ras.incorrect              134                       # Number of times the RAS is the provider and the prediction is wrong (Count)
system.cpu0.commit.commitSquashedInsts        3999306                       # The number of squashed insts skipped by commit (Count)
system.cpu0.commit.commitNonSpecStalls           1347                       # The number of times commit has been forced to stall to communicate backwards (Count)
system.cpu0.commit.branchMispredicts           101886                       # The number of times a branch was mispredicted (Count)
system.cpu0.commit.numCommittedDist::samples   1712381601                       # Number of insts commited each cycle (Count)
system.cpu0.commit.numCommittedDist::mean     0.610728                       # Number of insts commited each cycle (Count)
system.cpu0.commit.numCommittedDist::stdev     1.866693                       # Number of insts commited each cycle (Count)
system.cpu0.commit.numCommittedDist::underflows            0      0.00%      0.00% # Number of insts commited each cycle (Count)
system.cpu0.commit.numCommittedDist::0     1465456446     85.58%     85.58% # Number of insts commited each cycle (Count)
system.cpu0.commit.numCommittedDist::1       75440197      4.41%     89.99% # Number of insts commited each cycle (Count)
system.cpu0.commit.numCommittedDist::2       26850523      1.57%     91.55% # Number of insts commited each cycle (Count)
system.cpu0.commit.numCommittedDist::3       29335455      1.71%     93.27% # Number of insts commited each cycle (Count)
system.cpu0.commit.numCommittedDist::4        7975518      0.47%     93.73% # Number of insts commited each cycle (Count)
system.cpu0.commit.numCommittedDist::5       12628236      0.74%     94.47% # Number of insts commited each cycle (Count)
system.cpu0.commit.numCommittedDist::6        7096652      0.41%     94.88% # Number of insts commited each cycle (Count)
system.cpu0.commit.numCommittedDist::7        9759854      0.57%     95.45% # Number of insts commited each cycle (Count)
system.cpu0.commit.numCommittedDist::8       77838720      4.55%    100.00% # Number of insts commited each cycle (Count)
system.cpu0.commit.numCommittedDist::overflows            0      0.00%    100.00% # Number of insts commited each cycle (Count)
system.cpu0.commit.numCommittedDist::min_value            0                       # Number of insts commited each cycle (Count)
system.cpu0.commit.numCommittedDist::max_value            8                       # Number of insts commited each cycle (Count)
system.cpu0.commit.numCommittedDist::total   1712381601                       # Number of insts commited each cycle (Count)
system.cpu0.commit.amos                             0                       # Number of atomic instructions committed (Count)
system.cpu0.commit.membars                        730                       # Number of memory barriers committed (Count)
system.cpu0.commit.functionCalls             29455371                       # Number of function calls committed. (Count)
system.cpu0.commit.committedInstType_0::No_OpClass        41764      0.00%      0.00% # Class of committed instruction (Count)
system.cpu0.commit.committedInstType_0::IntAlu    653986994     62.53%     62.54% # Class of committed instruction (Count)
system.cpu0.commit.committedInstType_0::IntMult      5974683      0.57%     63.11% # Class of committed instruction (Count)
system.cpu0.commit.committedInstType_0::IntDiv         3732      0.00%     63.11% # Class of committed instruction (Count)
system.cpu0.commit.committedInstType_0::FloatAdd     16200912      1.55%     64.66% # Class of committed instruction (Count)
system.cpu0.commit.committedInstType_0::FloatCmp            0      0.00%     64.66% # Class of committed instruction (Count)
system.cpu0.commit.committedInstType_0::FloatCvt          448      0.00%     64.66% # Class of committed instruction (Count)
system.cpu0.commit.committedInstType_0::FloatMult            0      0.00%     64.66% # Class of committed instruction (Count)
system.cpu0.commit.committedInstType_0::FloatMultAcc            0      0.00%     64.66% # Class of committed instruction (Count)
system.cpu0.commit.committedInstType_0::FloatDiv            0      0.00%     64.66% # Class of committed instruction (Count)
system.cpu0.commit.committedInstType_0::FloatMisc            0      0.00%     64.66% # Class of committed instruction (Count)
system.cpu0.commit.committedInstType_0::FloatSqrt            0      0.00%     64.66% # Class of committed instruction (Count)
system.cpu0.commit.committedInstType_0::SimdAdd          788      0.00%     64.66% # Class of committed instruction (Count)
system.cpu0.commit.committedInstType_0::SimdAddAcc            0      0.00%     64.66% # Class of committed instruction (Count)
system.cpu0.commit.committedInstType_0::SimdAlu      7198864      0.69%     65.35% # Class of committed instruction (Count)
system.cpu0.commit.committedInstType_0::SimdCmp            0      0.00%     65.35% # Class of committed instruction (Count)
system.cpu0.commit.committedInstType_0::SimdCvt         7178      0.00%     65.35% # Class of committed instruction (Count)
system.cpu0.commit.committedInstType_0::SimdMisc      5419893      0.52%     65.87% # Class of committed instruction (Count)
system.cpu0.commit.committedInstType_0::SimdMult            0      0.00%     65.87% # Class of committed instruction (Count)
system.cpu0.commit.committedInstType_0::SimdMultAcc            0      0.00%     65.87% # Class of committed instruction (Count)
system.cpu0.commit.committedInstType_0::SimdMatMultAcc            0      0.00%     65.87% # Class of committed instruction (Count)
system.cpu0.commit.committedInstType_0::SimdShift         1182      0.00%     65.87% # Class of committed instruction (Count)
system.cpu0.commit.committedInstType_0::SimdShiftAcc            0      0.00%     65.87% # Class of committed instruction (Count)
system.cpu0.commit.committedInstType_0::SimdDiv            0      0.00%     65.87% # Class of committed instruction (Count)
system.cpu0.commit.committedInstType_0::SimdSqrt            0      0.00%     65.87% # Class of committed instruction (Count)
system.cpu0.commit.committedInstType_0::SimdFloatAdd      3591410      0.34%     66.21% # Class of committed instruction (Count)
system.cpu0.commit.committedInstType_0::SimdFloatAlu            0      0.00%     66.21% # Class of committed instruction (Count)
system.cpu0.commit.committedInstType_0::SimdFloatCmp            0      0.00%     66.21% # Class of committed instruction (Count)
system.cpu0.commit.committedInstType_0::SimdFloatCvt      7189298      0.69%     66.90% # Class of committed instruction (Count)
system.cpu0.commit.committedInstType_0::SimdFloatDiv      1792996      0.17%     67.07% # Class of committed instruction (Count)
system.cpu0.commit.committedInstType_0::SimdFloatMisc            0      0.00%     67.07% # Class of committed instruction (Count)
system.cpu0.commit.committedInstType_0::SimdFloatMult      1799212      0.17%     67.24% # Class of committed instruction (Count)
system.cpu0.commit.committedInstType_0::SimdFloatMultAcc            0      0.00%     67.24% # Class of committed instruction (Count)
system.cpu0.commit.committedInstType_0::SimdFloatMatMultAcc            0      0.00%     67.24% # Class of committed instruction (Count)
system.cpu0.commit.committedInstType_0::SimdFloatSqrt            4      0.00%     67.24% # Class of committed instruction (Count)
system.cpu0.commit.committedInstType_0::SimdReduceAdd            0      0.00%     67.24% # Class of committed instruction (Count)
system.cpu0.commit.committedInstType_0::SimdReduceAlu            0      0.00%     67.24% # Class of committed instruction (Count)
system.cpu0.commit.committedInstType_0::SimdReduceCmp            0      0.00%     67.24% # Class of committed instruction (Count)
system.cpu0.commit.committedInstType_0::SimdFloatReduceAdd            0      0.00%     67.24% # Class of committed instruction (Count)
system.cpu0.commit.committedInstType_0::SimdFloatReduceCmp            0      0.00%     67.24% # Class of committed instruction (Count)
system.cpu0.commit.committedInstType_0::SimdAes            0      0.00%     67.24% # Class of committed instruction (Count)
system.cpu0.commit.committedInstType_0::SimdAesMix            0      0.00%     67.24% # Class of committed instruction (Count)
system.cpu0.commit.committedInstType_0::SimdSha1Hash            0      0.00%     67.24% # Class of committed instruction (Count)
system.cpu0.commit.committedInstType_0::SimdSha1Hash2            0      0.00%     67.24% # Class of committed instruction (Count)
system.cpu0.commit.committedInstType_0::SimdSha256Hash            0      0.00%     67.24% # Class of committed instruction (Count)
system.cpu0.commit.committedInstType_0::SimdSha256Hash2            0      0.00%     67.24% # Class of committed instruction (Count)
system.cpu0.commit.committedInstType_0::SimdShaSigma2            0      0.00%     67.24% # Class of committed instruction (Count)
system.cpu0.commit.committedInstType_0::SimdShaSigma3            0      0.00%     67.24% # Class of committed instruction (Count)
system.cpu0.commit.committedInstType_0::SimdPredAlu            0      0.00%     67.24% # Class of committed instruction (Count)
system.cpu0.commit.committedInstType_0::Matrix            0      0.00%     67.24% # Class of committed instruction (Count)
system.cpu0.commit.committedInstType_0::MatrixMov            0      0.00%     67.24% # Class of committed instruction (Count)
system.cpu0.commit.committedInstType_0::MatrixOP            0      0.00%     67.24% # Class of committed instruction (Count)
system.cpu0.commit.committedInstType_0::MemRead    196171857     18.76%     86.00% # Class of committed instruction (Count)
system.cpu0.commit.committedInstType_0::MemWrite    121171064     11.59%     97.59% # Class of committed instruction (Count)
system.cpu0.commit.committedInstType_0::FloatMemRead     18017577      1.72%     99.31% # Class of committed instruction (Count)
system.cpu0.commit.committedInstType_0::FloatMemWrite      7229654      0.69%    100.00% # Class of committed instruction (Count)
system.cpu0.commit.committedInstType_0::IprAccess            0      0.00%    100.00% # Class of committed instruction (Count)
system.cpu0.commit.committedInstType_0::InstPrefetch            0      0.00%    100.00% # Class of committed instruction (Count)
system.cpu0.commit.committedInstType_0::SimdUnitStrideLoad            0      0.00%    100.00% # Class of committed instruction (Count)
system.cpu0.commit.committedInstType_0::SimdUnitStrideStore            0      0.00%    100.00% # Class of committed instruction (Count)
system.cpu0.commit.committedInstType_0::SimdUnitStrideMaskLoad            0      0.00%    100.00% # Class of committed instruction (Count)
system.cpu0.commit.committedInstType_0::SimdUnitStrideMaskStore            0      0.00%    100.00% # Class of committed instruction (Count)
system.cpu0.commit.committedInstType_0::SimdStridedLoad            0      0.00%    100.00% # Class of committed instruction (Count)
system.cpu0.commit.committedInstType_0::SimdStridedStore            0      0.00%    100.00% # Class of committed instruction (Count)
system.cpu0.commit.committedInstType_0::SimdIndexedLoad            0      0.00%    100.00% # Class of committed instruction (Count)
system.cpu0.commit.committedInstType_0::SimdIndexedStore            0      0.00%    100.00% # Class of committed instruction (Count)
system.cpu0.commit.committedInstType_0::SimdWholeRegisterLoad            0      0.00%    100.00% # Class of committed instruction (Count)
system.cpu0.commit.committedInstType_0::SimdWholeRegisterStore            0      0.00%    100.00% # Class of committed instruction (Count)
system.cpu0.commit.committedInstType_0::SimdUnitStrideFaultOnlyFirstLoad            0      0.00%    100.00% # Class of committed instruction (Count)
system.cpu0.commit.committedInstType_0::SimdUnitStrideSegmentedLoad            0      0.00%    100.00% # Class of committed instruction (Count)
system.cpu0.commit.committedInstType_0::SimdUnitStrideSegmentedStore            0      0.00%    100.00% # Class of committed instruction (Count)
system.cpu0.commit.committedInstType_0::SimdExt            0      0.00%    100.00% # Class of committed instruction (Count)
system.cpu0.commit.committedInstType_0::SimdFloatExt            0      0.00%    100.00% # Class of committed instruction (Count)
system.cpu0.commit.committedInstType_0::SimdConfig            0      0.00%    100.00% # Class of committed instruction (Count)
system.cpu0.commit.committedInstType_0::total   1045799510                       # Class of committed instruction (Count)
system.cpu0.commit.commitEligibleSamples     77838720                       # number cycles where commit BW limit reached (Cycle)
system.cpu0.commitStats0.numInsts           602888084                       # Number of instructions committed (thread level) (Count)
system.cpu0.commitStats0.numOps            1045799510                       # Number of ops (including micro ops) committed (thread level) (Count)
system.cpu0.commitStats0.numInstsNotNOP     602888084                       # Number of instructions committed excluding NOPs or prefetches (Count)
system.cpu0.commitStats0.numOpsNotNOP      1045799510                       # Number of Ops (including micro ops) Simulated (Count)
system.cpu0.commitStats0.cpi                 2.849783                       # CPI: cycles per instruction (thread level) ((Cycle/Count))
system.cpu0.commitStats0.ipc                 0.350904                       # IPC: instructions per cycle (thread level) ((Count/Cycle))
system.cpu0.commitStats0.numMemRefs         342590152                       # Number of memory references committed (Count)
system.cpu0.commitStats0.numFpInsts          68453085                       # Number of float instructions (Count)
system.cpu0.commitStats0.numIntInsts       1007693302                       # Number of integer instructions (Count)
system.cpu0.commitStats0.numLoadInsts       214189434                       # Number of load instructions (Count)
system.cpu0.commitStats0.numStoreInsts      128400718                       # Number of store instructions (Count)
system.cpu0.commitStats0.numVecInsts                0                       # Number of vector instructions (Count)
system.cpu0.commitStats0.committedInstType::No_OpClass        41764      0.00%      0.00% # Class of committed instruction. (Count)
system.cpu0.commitStats0.committedInstType::IntAlu    653986994     62.53%     62.54% # Class of committed instruction. (Count)
system.cpu0.commitStats0.committedInstType::IntMult      5974683      0.57%     63.11% # Class of committed instruction. (Count)
system.cpu0.commitStats0.committedInstType::IntDiv         3732      0.00%     63.11% # Class of committed instruction. (Count)
system.cpu0.commitStats0.committedInstType::FloatAdd     16200912      1.55%     64.66% # Class of committed instruction. (Count)
system.cpu0.commitStats0.committedInstType::FloatCmp            0      0.00%     64.66% # Class of committed instruction. (Count)
system.cpu0.commitStats0.committedInstType::FloatCvt          448      0.00%     64.66% # Class of committed instruction. (Count)
system.cpu0.commitStats0.committedInstType::FloatMult            0      0.00%     64.66% # Class of committed instruction. (Count)
system.cpu0.commitStats0.committedInstType::FloatMultAcc            0      0.00%     64.66% # Class of committed instruction. (Count)
system.cpu0.commitStats0.committedInstType::FloatDiv            0      0.00%     64.66% # Class of committed instruction. (Count)
system.cpu0.commitStats0.committedInstType::FloatMisc            0      0.00%     64.66% # Class of committed instruction. (Count)
system.cpu0.commitStats0.committedInstType::FloatSqrt            0      0.00%     64.66% # Class of committed instruction. (Count)
system.cpu0.commitStats0.committedInstType::SimdAdd          788      0.00%     64.66% # Class of committed instruction. (Count)
system.cpu0.commitStats0.committedInstType::SimdAddAcc            0      0.00%     64.66% # Class of committed instruction. (Count)
system.cpu0.commitStats0.committedInstType::SimdAlu      7198864      0.69%     65.35% # Class of committed instruction. (Count)
system.cpu0.commitStats0.committedInstType::SimdCmp            0      0.00%     65.35% # Class of committed instruction. (Count)
system.cpu0.commitStats0.committedInstType::SimdCvt         7178      0.00%     65.35% # Class of committed instruction. (Count)
system.cpu0.commitStats0.committedInstType::SimdMisc      5419893      0.52%     65.87% # Class of committed instruction. (Count)
system.cpu0.commitStats0.committedInstType::SimdMult            0      0.00%     65.87% # Class of committed instruction. (Count)
system.cpu0.commitStats0.committedInstType::SimdMultAcc            0      0.00%     65.87% # Class of committed instruction. (Count)
system.cpu0.commitStats0.committedInstType::SimdMatMultAcc            0      0.00%     65.87% # Class of committed instruction. (Count)
system.cpu0.commitStats0.committedInstType::SimdShift         1182      0.00%     65.87% # Class of committed instruction. (Count)
system.cpu0.commitStats0.committedInstType::SimdShiftAcc            0      0.00%     65.87% # Class of committed instruction. (Count)
system.cpu0.commitStats0.committedInstType::SimdDiv            0      0.00%     65.87% # Class of committed instruction. (Count)
system.cpu0.commitStats0.committedInstType::SimdSqrt            0      0.00%     65.87% # Class of committed instruction. (Count)
system.cpu0.commitStats0.committedInstType::SimdFloatAdd      3591410      0.34%     66.21% # Class of committed instruction. (Count)
system.cpu0.commitStats0.committedInstType::SimdFloatAlu            0      0.00%     66.21% # Class of committed instruction. (Count)
system.cpu0.commitStats0.committedInstType::SimdFloatCmp            0      0.00%     66.21% # Class of committed instruction. (Count)
system.cpu0.commitStats0.committedInstType::SimdFloatCvt      7189298      0.69%     66.90% # Class of committed instruction. (Count)
system.cpu0.commitStats0.committedInstType::SimdFloatDiv      1792996      0.17%     67.07% # Class of committed instruction. (Count)
system.cpu0.commitStats0.committedInstType::SimdFloatMisc            0      0.00%     67.07% # Class of committed instruction. (Count)
system.cpu0.commitStats0.committedInstType::SimdFloatMult      1799212      0.17%     67.24% # Class of committed instruction. (Count)
system.cpu0.commitStats0.committedInstType::SimdFloatMultAcc            0      0.00%     67.24% # Class of committed instruction. (Count)
system.cpu0.commitStats0.committedInstType::SimdFloatMatMultAcc            0      0.00%     67.24% # Class of committed instruction. (Count)
system.cpu0.commitStats0.committedInstType::SimdFloatSqrt            4      0.00%     67.24% # Class of committed instruction. (Count)
system.cpu0.commitStats0.committedInstType::SimdReduceAdd            0      0.00%     67.24% # Class of committed instruction. (Count)
system.cpu0.commitStats0.committedInstType::SimdReduceAlu            0      0.00%     67.24% # Class of committed instruction. (Count)
system.cpu0.commitStats0.committedInstType::SimdReduceCmp            0      0.00%     67.24% # Class of committed instruction. (Count)
system.cpu0.commitStats0.committedInstType::SimdFloatReduceAdd            0      0.00%     67.24% # Class of committed instruction. (Count)
system.cpu0.commitStats0.committedInstType::SimdFloatReduceCmp            0      0.00%     67.24% # Class of committed instruction. (Count)
system.cpu0.commitStats0.committedInstType::SimdAes            0      0.00%     67.24% # Class of committed instruction. (Count)
system.cpu0.commitStats0.committedInstType::SimdAesMix            0      0.00%     67.24% # Class of committed instruction. (Count)
system.cpu0.commitStats0.committedInstType::SimdSha1Hash            0      0.00%     67.24% # Class of committed instruction. (Count)
system.cpu0.commitStats0.committedInstType::SimdSha1Hash2            0      0.00%     67.24% # Class of committed instruction. (Count)
system.cpu0.commitStats0.committedInstType::SimdSha256Hash            0      0.00%     67.24% # Class of committed instruction. (Count)
system.cpu0.commitStats0.committedInstType::SimdSha256Hash2            0      0.00%     67.24% # Class of committed instruction. (Count)
system.cpu0.commitStats0.committedInstType::SimdShaSigma2            0      0.00%     67.24% # Class of committed instruction. (Count)
system.cpu0.commitStats0.committedInstType::SimdShaSigma3            0      0.00%     67.24% # Class of committed instruction. (Count)
system.cpu0.commitStats0.committedInstType::SimdPredAlu            0      0.00%     67.24% # Class of committed instruction. (Count)
system.cpu0.commitStats0.committedInstType::Matrix            0      0.00%     67.24% # Class of committed instruction. (Count)
system.cpu0.commitStats0.committedInstType::MatrixMov            0      0.00%     67.24% # Class of committed instruction. (Count)
system.cpu0.commitStats0.committedInstType::MatrixOP            0      0.00%     67.24% # Class of committed instruction. (Count)
system.cpu0.commitStats0.committedInstType::MemRead    196171857     18.76%     86.00% # Class of committed instruction. (Count)
system.cpu0.commitStats0.committedInstType::MemWrite    121171064     11.59%     97.59% # Class of committed instruction. (Count)
system.cpu0.commitStats0.committedInstType::FloatMemRead     18017577      1.72%     99.31% # Class of committed instruction. (Count)
system.cpu0.commitStats0.committedInstType::FloatMemWrite      7229654      0.69%    100.00% # Class of committed instruction. (Count)
system.cpu0.commitStats0.committedInstType::IprAccess            0      0.00%    100.00% # Class of committed instruction. (Count)
system.cpu0.commitStats0.committedInstType::InstPrefetch            0      0.00%    100.00% # Class of committed instruction. (Count)
system.cpu0.commitStats0.committedInstType::SimdUnitStrideLoad            0      0.00%    100.00% # Class of committed instruction. (Count)
system.cpu0.commitStats0.committedInstType::SimdUnitStrideStore            0      0.00%    100.00% # Class of committed instruction. (Count)
system.cpu0.commitStats0.committedInstType::SimdUnitStrideMaskLoad            0      0.00%    100.00% # Class of committed instruction. (Count)
system.cpu0.commitStats0.committedInstType::SimdUnitStrideMaskStore            0      0.00%    100.00% # Class of committed instruction. (Count)
system.cpu0.commitStats0.committedInstType::SimdStridedLoad            0      0.00%    100.00% # Class of committed instruction. (Count)
system.cpu0.commitStats0.committedInstType::SimdStridedStore            0      0.00%    100.00% # Class of committed instruction. (Count)
system.cpu0.commitStats0.committedInstType::SimdIndexedLoad            0      0.00%    100.00% # Class of committed instruction. (Count)
system.cpu0.commitStats0.committedInstType::SimdIndexedStore            0      0.00%    100.00% # Class of committed instruction. (Count)
system.cpu0.commitStats0.committedInstType::SimdWholeRegisterLoad            0      0.00%    100.00% # Class of committed instruction. (Count)
system.cpu0.commitStats0.committedInstType::SimdWholeRegisterStore            0      0.00%    100.00% # Class of committed instruction. (Count)
system.cpu0.commitStats0.committedInstType::SimdUnitStrideFaultOnlyFirstLoad            0      0.00%    100.00% # Class of committed instruction. (Count)
system.cpu0.commitStats0.committedInstType::SimdUnitStrideSegmentedLoad            0      0.00%    100.00% # Class of committed instruction. (Count)
system.cpu0.commitStats0.committedInstType::SimdUnitStrideSegmentedStore            0      0.00%    100.00% # Class of committed instruction. (Count)
system.cpu0.commitStats0.committedInstType::SimdExt            0      0.00%    100.00% # Class of committed instruction. (Count)
system.cpu0.commitStats0.committedInstType::SimdFloatExt            0      0.00%    100.00% # Class of committed instruction. (Count)
system.cpu0.commitStats0.committedInstType::SimdConfig            0      0.00%    100.00% # Class of committed instruction. (Count)
system.cpu0.commitStats0.committedInstType::total   1045799510                       # Class of committed instruction. (Count)
system.cpu0.commitStats0.committedControl::IsControl     86405159                       # Class of control type instructions committed (Count)
system.cpu0.commitStats0.committedControl::IsDirectControl     55113584                       # Class of control type instructions committed (Count)
system.cpu0.commitStats0.committedControl::IsIndirectControl     31291575                       # Class of control type instructions committed (Count)
system.cpu0.commitStats0.committedControl::IsCondControl     25228284                       # Class of control type instructions committed (Count)
system.cpu0.commitStats0.committedControl::IsUncondControl     61176875                       # Class of control type instructions committed (Count)
system.cpu0.commitStats0.committedControl::IsCall     29455371                       # Class of control type instructions committed (Count)
system.cpu0.commitStats0.committedControl::IsReturn     29455367                       # Class of control type instructions committed (Count)
system.cpu0.dcache.demandHits::cpu0.data    207632434                       # number of demand (read+write) hits (Count)
system.cpu0.dcache.demandHits::total        207632434                       # number of demand (read+write) hits (Count)
system.cpu0.dcache.overallHits::cpu0.data    207632434                       # number of overall hits (Count)
system.cpu0.dcache.overallHits::total       207632434                       # number of overall hits (Count)
system.cpu0.dcache.demandMisses::cpu0.data      3713881                       # number of demand (read+write) misses (Count)
system.cpu0.dcache.demandMisses::total        3713881                       # number of demand (read+write) misses (Count)
system.cpu0.dcache.overallMisses::cpu0.data      3713881                       # number of overall misses (Count)
system.cpu0.dcache.overallMisses::total       3713881                       # number of overall misses (Count)
system.cpu0.dcache.demandMissLatency::cpu0.data 459828354750                       # number of demand (read+write) miss ticks (Tick)
system.cpu0.dcache.demandMissLatency::total 459828354750                       # number of demand (read+write) miss ticks (Tick)
system.cpu0.dcache.overallMissLatency::cpu0.data 459828354750                       # number of overall miss ticks (Tick)
system.cpu0.dcache.overallMissLatency::total 459828354750                       # number of overall miss ticks (Tick)
system.cpu0.dcache.demandAccesses::cpu0.data    211346315                       # number of demand (read+write) accesses (Count)
system.cpu0.dcache.demandAccesses::total    211346315                       # number of demand (read+write) accesses (Count)
system.cpu0.dcache.overallAccesses::cpu0.data    211346315                       # number of overall (read+write) accesses (Count)
system.cpu0.dcache.overallAccesses::total    211346315                       # number of overall (read+write) accesses (Count)
system.cpu0.dcache.demandMissRate::cpu0.data     0.017572                       # miss rate for demand accesses (Ratio)
system.cpu0.dcache.demandMissRate::total     0.017572                       # miss rate for demand accesses (Ratio)
system.cpu0.dcache.overallMissRate::cpu0.data     0.017572                       # miss rate for overall accesses (Ratio)
system.cpu0.dcache.overallMissRate::total     0.017572                       # miss rate for overall accesses (Ratio)
system.cpu0.dcache.demandAvgMissLatency::cpu0.data 123813.432566                       # average overall miss latency in ticks ((Tick/Count))
system.cpu0.dcache.demandAvgMissLatency::total 123813.432566                       # average overall miss latency in ticks ((Tick/Count))
system.cpu0.dcache.overallAvgMissLatency::cpu0.data 123813.432566                       # average overall miss latency ((Tick/Count))
system.cpu0.dcache.overallAvgMissLatency::total 123813.432566                       # average overall miss latency ((Tick/Count))
system.cpu0.dcache.blockedCycles::no_mshrs      1456523                       # number of cycles access was blocked (Cycle)
system.cpu0.dcache.blockedCycles::no_targets        32717                       # number of cycles access was blocked (Cycle)
system.cpu0.dcache.blockedCauses::no_mshrs         1680                       # number of times access was blocked (Count)
system.cpu0.dcache.blockedCauses::no_targets           42                       # number of times access was blocked (Count)
system.cpu0.dcache.avgBlocked::no_mshrs    866.977976                       # average number of cycles each access was blocked ((Cycle/Count))
system.cpu0.dcache.avgBlocked::no_targets   778.976190                       # average number of cycles each access was blocked ((Cycle/Count))
system.cpu0.dcache.writebacks::writebacks      1916686                       # number of writebacks (Count)
system.cpu0.dcache.writebacks::total          1916686                       # number of writebacks (Count)
[...]
system.l2.WritebackDirty.accesses::total      1916686                       # number of WritebackDirty accesses(hits+misses) (Count)
system.l2.power_state.pwrStateResidencyTicks::UNDEFINED 537765376059                       # Cumulative time (in ticks) in various power states (Tick)
system.l2.tags.tagsInUse                 32399.511445                       # Average ticks per tags in use ((Tick/Count))
system.l2.tags.totalRefs                      7331825                       # Total number of references to valid blocks. (Count)
system.l2.tags.sampledRefs                     752037                       # Sample count of references to valid blocks. (Count)
system.l2.tags.avgRefs                       9.749288                       # Average number of references to valid blocks. ((Count/Count))
system.l2.tags.warmupTick                      430000                       # The tick when the warmup percentage was hit. (Tick)
system.l2.tags.occupancies::writebacks      40.533489                       # Average occupied blocks per tick, per requestor ((Count/Tick))
system.l2.tags.occupancies::cpu0.inst       68.796982                       # Average occupied blocks per tick, per requestor ((Count/Tick))
system.l2.tags.occupancies::cpu0.data    32290.180974                       # Average occupied blocks per tick, per requestor ((Count/Tick))
system.l2.tags.avgOccs::writebacks           0.001237                       # Average percentage of cache occupancy ((Ratio/Tick))
system.l2.tags.avgOccs::cpu0.inst            0.002100                       # Average percentage of cache occupancy ((Ratio/Tick))
system.l2.tags.avgOccs::cpu0.data            0.985418                       # Average percentage of cache occupancy ((Ratio/Tick))
system.l2.tags.avgOccs::total                0.988755                       # Average percentage of cache occupancy ((Ratio/Tick))
system.l2.tags.occupanciesTaskId::1024          32768                       # Occupied blocks per task id (Count)
system.l2.tags.ageTaskId_1024::0                   27                       # Occupied blocks per task id, per block age (Count)
system.l2.tags.ageTaskId_1024::1                  240                       # Occupied blocks per task id, per block age (Count)
system.l2.tags.ageTaskId_1024::2                  936                       # Occupied blocks per task id, per block age (Count)
system.l2.tags.ageTaskId_1024::3                 7523                       # Occupied blocks per task id, per block age (Count)
system.l2.tags.ageTaskId_1024::4                24042                       # Occupied blocks per task id, per block age (Count)
system.l2.tags.ratioOccsTaskId::1024                1                       # Ratio of occupied blocks and all blocks, per task id (Ratio)
system.l2.tags.tagAccesses                   59406821                       # Number of tag accesses (Count)
system.l2.tags.dataAccesses                  59406821                       # Number of data accesses (Count)
system.l2.tags.power_state.pwrStateResidencyTicks::UNDEFINED 537765376059                       # Cumulative time (in ticks) in various power states (Tick)
system.mem_ctrls.bytesRead::cpu0.inst          179008                       # Number of bytes read from this memory (Byte)
system.mem_ctrls.bytesRead::cpu0.data        47888384                       # Number of bytes read from this memory (Byte)
system.mem_ctrls.bytesRead::total            48067392                       # Number of bytes read from this memory (Byte)
system.mem_ctrls.bytesInstRead::cpu0.inst       179008                       # Number of instructions bytes read from this memory (Byte)
system.mem_ctrls.bytesInstRead::total          179008                       # Number of instructions bytes read from this memory (Byte)
system.mem_ctrls.bytesWritten::writebacks     31530752                       # Number of bytes written to this memory (Byte)
system.mem_ctrls.bytesWritten::total         31530752                       # Number of bytes written to this memory (Byte)
system.mem_ctrls.numReads::cpu0.inst             2797                       # Number of read requests responded to by this memory (Count)
system.mem_ctrls.numReads::cpu0.data           748256                       # Number of read requests responded to by this memory (Count)
system.mem_ctrls.numReads::total               751053                       # Number of read requests responded to by this memory (Count)
system.mem_ctrls.numWrites::writebacks         492668                       # Number of write requests responded to by this memory (Count)
system.mem_ctrls.numWrites::total              492668                       # Number of write requests responded to by this memory (Count)
system.mem_ctrls.bwRead::cpu0.inst             332874                       # Total read bandwidth from this memory ((Byte/Second))
system.mem_ctrls.bwRead::cpu0.data           89050702                       # Total read bandwidth from this memory ((Byte/Second))
system.mem_ctrls.bwRead::total               89383575                       # Total read bandwidth from this memory ((Byte/Second))
system.mem_ctrls.bwInstRead::cpu0.inst         332874                       # Instruction read bandwidth from this memory ((Byte/Second))
system.mem_ctrls.bwInstRead::total             332874                       # Instruction read bandwidth from this memory ((Byte/Second))
system.mem_ctrls.bwWrite::writebacks         58632916                       # Write bandwidth from this memory ((Byte/Second))
system.mem_ctrls.bwWrite::total              58632916                       # Write bandwidth from this memory ((Byte/Second))
system.mem_ctrls.bwTotal::writebacks         58632916                       # Total bandwidth to/from this memory ((Byte/Second))
system.mem_ctrls.bwTotal::cpu0.inst            332874                       # Total bandwidth to/from this memory ((Byte/Second))
system.mem_ctrls.bwTotal::cpu0.data          89050702                       # Total bandwidth to/from this memory ((Byte/Second))
system.mem_ctrls.bwTotal::total             148016491                       # Total bandwidth to/from this memory ((Byte/Second))
system.mem_ctrls.power_state.pwrStateResidencyTicks::UNDEFINED 537765376059                       # Cumulative time (in ticks) in various power states (Tick)
system.membus.transDist::ReadResp              259475                       # Transaction distribution (Count)
system.membus.transDist::WritebackDirty        492668                       # Transaction distribution (Count)
system.membus.transDist::CleanEvict            225510                       # Transaction distribution (Count)
system.membus.transDist::ReadExReq             491578                       # Transaction distribution (Count)
system.membus.transDist::ReadExResp            491578                       # Transaction distribution (Count)
system.membus.transDist::ReadSharedReq         259475                       # Transaction distribution (Count)
system.membus.pktCount_system.l2.mem_side_port::system.mem_ctrls.port      2220284                       # Packet count per connected requestor and responder (Count)
system.membus.pktCount_system.l2.mem_side_port::total      2220284                       # Packet count per connected requestor and responder (Count)
system.membus.pktCount::total                 2220284                       # Packet count per connected requestor and responder (Count)
system.membus.pktSize_system.l2.mem_side_port::system.mem_ctrls.port     79598144                       # Cumulative packet size per connected requestor and responder (Byte)
system.membus.pktSize_system.l2.mem_side_port::total     79598144                       # Cumulative packet size per connected requestor and responder (Byte)
system.membus.pktSize::total                 79598144                       # Cumulative packet size per connected requestor and responder (Byte)
system.membus.snoops                                0                       # Total snoops (Count)
system.membus.snoopTraffic                          0                       # Total snoop traffic (Byte)
system.membus.snoopFanout::samples             751053                       # Request fanout histogram (Count)
system.membus.snoopFanout::mean                     0                       # Request fanout histogram (Count)
system.membus.snoopFanout::stdev                    0                       # Request fanout histogram (Count)
system.membus.snoopFanout::underflows               0      0.00%      0.00% # Request fanout histogram (Count)
system.membus.snoopFanout::0                   751053    100.00%    100.00% # Request fanout histogram (Count)
system.membus.snoopFanout::1                        0      0.00%    100.00% # Request fanout histogram (Count)
system.membus.snoopFanout::overflows                0      0.00%    100.00% # Request fanout histogram (Count)
system.membus.snoopFanout::min_value                0                       # Request fanout histogram (Count)
system.membus.snoopFanout::max_value                0                       # Request fanout histogram (Count)
system.membus.snoopFanout::total               751053                       # Request fanout histogram (Count)
system.membus.power_state.pwrStateResidencyTicks::UNDEFINED 537765376059                       # Cumulative time (in ticks) in various power states (Tick)
system.membus.reqLayer16.occupancy        10079048030                       # Layer occupancy (ticks) (Tick)
system.membus.reqLayer16.utilization              0.0                       # Layer utilization (Ratio)
system.membus.respLayer1.occupancy        10273174924                       # Layer occupancy (ticks) (Tick)
system.membus.respLayer1.utilization              0.0                       # Layer utilization (Ratio)
system.membus.snoop_filter.totRequests        1469231                       # Total number of requests made to the snoop filter. (Count)
system.membus.snoop_filter.hitSingleRequests       718180                       # Number of requests hitting in the snoop filter with a single holder of the requested data. (Count)
system.membus.snoop_filter.hitMultiRequests            0                       # Number of requests hitting in the snoop filter with multiple (>1) holders of the requested data. (Count)
system.membus.snoop_filter.totSnoops                0                       # Total number of snoops made to the snoop filter. (Count)
system.membus.snoop_filter.hitSingleSnoops            0                       # Number of snoops hitting in the snoop filter with a single holder of the requested data. (Count)
system.membus.snoop_filter.hitMultiSnoops            0                       # Number of snoops hitting in the snoop filter with multiple (>1) holders of the requested data. (Count)
system.tol2bus.transDist::ReadResp            3124415                       # Transaction distribution (Count)
system.tol2bus.transDist::WritebackDirty      2409354                       # Transaction distribution (Count)
system.tol2bus.transDist::WritebackClean        17583                       # Transaction distribution (Count)
system.tol2bus.transDist::CleanEvict          1957811                       # Transaction distribution (Count)
system.tol2bus.transDist::UpgradeReq                5                       # Transaction distribution (Count)
system.tol2bus.transDist::UpgradeResp               5                       # Transaction distribution (Count)
system.tol2bus.transDist::ReadExReq            542100                       # Transaction distribution (Count)
system.tol2bus.transDist::ReadExResp           542100                       # Transaction distribution (Count)
system.tol2bus.transDist::ReadCleanReq          18108                       # Transaction distribution (Count)
system.tol2bus.transDist::ReadSharedReq       3106308                       # Transaction distribution (Count)
system.tol2bus.pktCount_system.cpu0.icache.mem_side_port::system.l2.cpu_side_port        53788                       # Packet count per connected requestor and responder (Count)
system.tol2bus.pktCount_system.cpu0.dcache.mem_side_port::system.l2.cpu_side_port     10944722                       # Packet count per connected requestor and responder (Count)
system.tol2bus.pktCount::total               10998510                       # Packet count per connected requestor and responder (Count)
system.tol2bus.pktSize_system.cpu0.icache.mem_side_port::system.l2.cpu_side_port      2283520                       # Cumulative packet size per connected requestor and responder (Byte)
system.tol2bus.pktSize_system.cpu0.dcache.mem_side_port::system.l2.cpu_side_port    356166016                       # Cumulative packet size per connected requestor and responder (Byte)
system.tol2bus.pktSize::total               358449536                       # Cumulative packet size per connected requestor and responder (Byte)
system.tol2bus.snoops                          719279                       # Total snoops (Count)
system.tol2bus.snoopTraffic                  31531392                       # Total snoop traffic (Byte)
system.tol2bus.snoopFanout::samples           4385790                       # Request fanout histogram (Count)
system.tol2bus.snoopFanout::mean             0.000302                       # Request fanout histogram (Count)
system.tol2bus.snoopFanout::stdev            0.017385                       # Request fanout histogram (Count)
system.tol2bus.snoopFanout::underflows              0      0.00%      0.00% # Request fanout histogram (Count)
system.tol2bus.snoopFanout::0                 4384467     99.97%     99.97% # Request fanout histogram (Count)
system.tol2bus.snoopFanout::1                    1322      0.03%    100.00% # Request fanout histogram (Count)
system.tol2bus.snoopFanout::2                       1      0.00%    100.00% # Request fanout histogram (Count)
system.tol2bus.snoopFanout::3                       0      0.00%    100.00% # Request fanout histogram (Count)
system.tol2bus.snoopFanout::4                       0      0.00%    100.00% # Request fanout histogram (Count)
system.tol2bus.snoopFanout::5                       0      0.00%    100.00% # Request fanout histogram (Count)
system.tol2bus.snoopFanout::6                       0      0.00%    100.00% # Request fanout histogram (Count)
system.tol2bus.snoopFanout::7                       0      0.00%    100.00% # Request fanout histogram (Count)
system.tol2bus.snoopFanout::8                       0      0.00%    100.00% # Request fanout histogram (Count)
system.tol2bus.snoopFanout::9                       0      0.00%    100.00% # Request fanout histogram (Count)
system.tol2bus.snoopFanout::10                      0      0.00%    100.00% # Request fanout histogram (Count)
system.tol2bus.snoopFanout::11                      0      0.00%    100.00% # Request fanout histogram (Count)
system.tol2bus.snoopFanout::12                      0      0.00%    100.00% # Request fanout histogram (Count)
system.tol2bus.snoopFanout::13                      0      0.00%    100.00% # Request fanout histogram (Count)
system.tol2bus.snoopFanout::14                      0      0.00%    100.00% # Request fanout histogram (Count)
system.tol2bus.snoopFanout::15                      0      0.00%    100.00% # Request fanout histogram (Count)
system.tol2bus.snoopFanout::16                      0      0.00%    100.00% # Request fanout histogram (Count)
system.tol2bus.snoopFanout::17                      0      0.00%    100.00% # Request fanout histogram (Count)
system.tol2bus.snoopFanout::18                      0      0.00%    100.00% # Request fanout histogram (Count)
system.tol2bus.snoopFanout::19                      0      0.00%    100.00% # Request fanout histogram (Count)
system.tol2bus.snoopFanout::20                      0      0.00%    100.00% # Request fanout histogram (Count)
system.tol2bus.snoopFanout::21                      0      0.00%    100.00% # Request fanout histogram (Count)
system.tol2bus.snoopFanout::22                      0      0.00%    100.00% # Request fanout histogram (Count)
system.tol2bus.snoopFanout::23                      0      0.00%    100.00% # Request fanout histogram (Count)
system.tol2bus.snoopFanout::24                      0      0.00%    100.00% # Request fanout histogram (Count)
system.tol2bus.snoopFanout::25                      0      0.00%    100.00% # Request fanout histogram (Count)
system.tol2bus.snoopFanout::26                      0      0.00%    100.00% # Request fanout histogram (Count)
system.tol2bus.snoopFanout::27                      0      0.00%    100.00% # Request fanout histogram (Count)
system.tol2bus.snoopFanout::28                      0      0.00%    100.00% # Request fanout histogram (Count)
system.tol2bus.snoopFanout::29                      0      0.00%    100.00% # Request fanout histogram (Count)
system.tol2bus.snoopFanout::30                      0      0.00%    100.00% # Request fanout histogram (Count)
system.tol2bus.snoopFanout::31                      0      0.00%    100.00% # Request fanout histogram (Count)
system.tol2bus.snoopFanout::32                      0      0.00%    100.00% # Request fanout histogram (Count)
system.tol2bus.snoopFanout::overflows               0      0.00%    100.00% # Request fanout histogram (Count)
system.tol2bus.snoopFanout::min_value               0                       # Request fanout histogram (Count)
system.tol2bus.snoopFanout::max_value               2                       # Request fanout histogram (Count)
system.tol2bus.snoopFanout::total             4385790                       # Request fanout histogram (Count)
system.tol2bus.power_state.pwrStateResidencyTicks::UNDEFINED 537765376059                       # Cumulative time (in ticks) in various power states (Tick)
system.tol2bus.reqLayer0.occupancy         3505768394                       # Layer occupancy (ticks) (Tick)
system.tol2bus.reqLayer0.utilization              0.0                       # Layer utilization (Ratio)
system.tol2bus.respLayer0.occupancy          17004657                       # Layer occupancy (ticks) (Tick)
system.tol2bus.respLayer0.utilization             0.0                       # Layer utilization (Ratio)
system.tol2bus.respLayer1.occupancy        3425856989                       # Layer occupancy (ticks) (Tick)
system.tol2bus.respLayer1.utilization             0.0                       # Layer utilization (Ratio)
system.tol2bus.snoop_filter.totRequests       7332000                       # Total number of requests made to the snoop filter. (Count)
system.tol2bus.snoop_filter.hitSingleRequests      3665484                       # Number of requests hitting in the snoop filter with a single holder of the requested data. (Count)
system.tol2bus.snoop_filter.hitMultiRequests          185                       # Number of requests hitting in the snoop filter with multiple (>1) holders of the requested data. (Count)
system.tol2bus.snoop_filter.totSnoops            1134                       # Total number of snoops made to the snoop filter. (Count)
system.tol2bus.snoop_filter.hitSingleSnoops         1133                       # Number of snoops hitting in the snoop filter with a single holder of the requested data. (Count)
system.tol2bus.snoop_filter.hitMultiSnoops            1                       # Number of snoops hitting in the snoop filter with multiple (>1) holders of the requested data. (Count)
system.voltage_domain.voltage                       1                       # Voltage in Volts (Volt)
system.workload.inst.arm                            0                       # number of arm instructions executed (Count)
system.workload.inst.quiesce                        0                       # number of quiesce instructions executed (Count)

---------- End Simulation Statistics   ----------
