
---------- Begin Simulation Statistics ----------
simSeconds                                   0.044818                       # Number of seconds simulated (Second)
simTicks                                  44818083445                       # Number of ticks simulated (Tick)
finalTick                                 44818083445                       # Number of ticks from beginning of simulation (restored from checkpoints and never reset) (Tick)
simFreq                                  1000000000000                       # The number of ticks per simulated second ((Tick/Second))
hostSeconds                                     54.12                       # Real time elapsed on the host (Second)
hostTickRate                                828052015                       # The number of ticks simulated per host second (ticks/s) ((Tick/Second))
hostMemory                                     857736                       # Number of bytes of host memory used (Byte)
simInsts                                     67533314                       # Number of instructions simulated (Count)
simOps                                      122482935                       # Number of ops (including micro ops) simulated (Count)
hostInstRate                                  1247730                       # Simulator instruction rate (inst/s) ((Count/Second))
hostOpRate                                    2262967                       # Simulator op (including micro ops) rate (op/s) ((Count/Second))
system.clk_domain.clock                          2500                       # Clock period in ticks (Tick)
system.cpu.numCycles                        143189144                       # Number of cpu cycles simulated (Cycle)
system.cpu.cpi                               2.120246                       # CPI: cycles per instruction (core level) ((Cycle/Count))
system.cpu.ipc                               0.471643                       # IPC: instructions per cycle (core level) ((Count/Cycle))
system.cpu.numWorkItemsStarted                      0                       # Number of work items this cpu started (Count)
system.cpu.numWorkItemsCompleted                    0                       # Number of work items this cpu completed (Count)
system.cpu.commitStats0.numInsts             67534208                       # Number of instructions committed (thread level) (Count)
system.cpu.commitStats0.numOps              122483886                       # Number of ops (including micro ops) committed (thread level) (Count)
system.cpu.commitStats0.numInstsNotNOP              0                       # Number of instructions committed excluding NOPs or prefetches (Count)
system.cpu.commitStats0.numOpsNotNOP                0                       # Number of Ops (including micro ops) Simulated (Count)
system.cpu.commitStats0.cpi                  2.120246                       # CPI: cycles per instruction (thread level) ((Cycle/Count))
system.cpu.commitStats0.ipc                  0.471643                       # IPC: instructions per cycle (thread level) ((Count/Cycle))
system.cpu.commitStats0.numMemRefs                  0                       # Number of memory references committed (Count)
system.cpu.commitStats0.numFpInsts           11486405                       # Number of float instructions (Count)
system.cpu.commitStats0.numIntInsts         116106371                       # Number of integer instructions (Count)
system.cpu.commitStats0.numLoadInsts         22562848                       # Number of load instructions (Count)
system.cpu.commitStats0.numStoreInsts        12356486                       # Number of store instructions (Count)
system.cpu.commitStats0.numVecInsts                 0                       # Number of vector instructions (Count)
system.cpu.commitStats0.committedInstType::No_OpClass         4219      0.00%      0.00% # Class of committed instruction. (Count)
system.cpu.commitStats0.committedInstType::IntAlu     79700231     65.07%     65.07% # Class of committed instruction. (Count)
system.cpu.commitStats0.committedInstType::IntMult       603842      0.49%     65.57% # Class of committed instruction. (Count)
system.cpu.commitStats0.committedInstType::IntDiv         3761      0.00%     65.57% # Class of committed instruction. (Count)
system.cpu.commitStats0.committedInstType::FloatAdd      2720103      2.22%     67.79% # Class of committed instruction. (Count)
system.cpu.commitStats0.committedInstType::FloatCmp            0      0.00%     67.79% # Class of committed instruction. (Count)
system.cpu.commitStats0.committedInstType::FloatCvt          416      0.00%     67.79% # Class of committed instruction. (Count)
system.cpu.commitStats0.committedInstType::FloatMult            0      0.00%     67.79% # Class of committed instruction. (Count)
system.cpu.commitStats0.committedInstType::FloatMultAcc            0      0.00%     67.79% # Class of committed instruction. (Count)
system.cpu.commitStats0.committedInstType::FloatDiv            0      0.00%     67.79% # Class of committed instruction. (Count)
system.cpu.commitStats0.committedInstType::FloatMisc            0      0.00%     67.79% # Class of committed instruction. (Count)
system.cpu.commitStats0.committedInstType::FloatSqrt            0      0.00%     67.79% # Class of committed instruction. (Count)
system.cpu.commitStats0.committedInstType::SimdAdd           16      0.00%     67.79% # Class of committed instruction. (Count)
system.cpu.commitStats0.committedInstType::SimdAddAcc            0      0.00%     67.79% # Class of committed instruction. (Count)
system.cpu.commitStats0.committedInstType::SimdAlu      1208478      0.99%     68.78% # Class of committed instruction. (Count)
system.cpu.commitStats0.committedInstType::SimdCmp            0      0.00%     68.78% # Class of committed instruction. (Count)
system.cpu.commitStats0.committedInstType::SimdCvt          500      0.00%     68.78% # Class of committed instruction. (Count)
system.cpu.commitStats0.committedInstType::SimdMisc       906858      0.74%     69.52% # Class of committed instruction. (Count)
system.cpu.commitStats0.committedInstType::SimdMult            0      0.00%     69.52% # Class of committed instruction. (Count)
system.cpu.commitStats0.committedInstType::SimdMultAcc            0      0.00%     69.52% # Class of committed instruction. (Count)
system.cpu.commitStats0.committedInstType::SimdMatMultAcc            0      0.00%     69.52% # Class of committed instruction. (Count)
system.cpu.commitStats0.committedInstType::SimdShift            0      0.00%     69.52% # Class of committed instruction. (Count)
system.cpu.commitStats0.committedInstType::SimdShiftAcc            0      0.00%     69.52% # Class of committed instruction. (Count)
system.cpu.commitStats0.committedInstType::SimdDiv            0      0.00%     69.52% # Class of committed instruction. (Count)
system.cpu.commitStats0.committedInstType::SimdSqrt            0      0.00%     69.52% # Class of committed instruction. (Count)
system.cpu.commitStats0.committedInstType::SimdFloatAdd       603648      0.49%     70.01% # Class of committed instruction. (Count)
system.cpu.commitStats0.committedInstType::SimdFloatAlu            0      0.00%     70.01% # Class of committed instruction. (Count)
system.cpu.commitStats0.committedInstType::SimdFloatCmp            0      0.00%     70.01% # Class of committed instruction. (Count)
system.cpu.commitStats0.committedInstType::SimdFloatCvt      1208448      0.99%     71.00% # Class of committed instruction. (Count)
system.cpu.commitStats0.committedInstType::SimdFloatDiv       301824      0.25%     71.24% # Class of committed instruction. (Count)
system.cpu.commitStats0.committedInstType::SimdFloatMisc            0      0.00%     71.24% # Class of committed instruction. (Count)
system.cpu.commitStats0.committedInstType::SimdFloatMult       302208      0.25%     71.49% # Class of committed instruction. (Count)
system.cpu.commitStats0.committedInstType::SimdFloatMultAcc            0      0.00%     71.49% # Class of committed instruction. (Count)
system.cpu.commitStats0.committedInstType::SimdFloatMatMultAcc            0      0.00%     71.49% # Class of committed instruction. (Count)
system.cpu.commitStats0.committedInstType::SimdFloatSqrt            0      0.00%     71.49% # Class of committed instruction. (Count)
system.cpu.commitStats0.committedInstType::SimdReduceAdd            0      0.00%     71.49% # Class of committed instruction. (Count)
system.cpu.commitStats0.committedInstType::SimdReduceAlu            0      0.00%     71.49% # Class of committed instruction. (Count)
system.cpu.commitStats0.committedInstType::SimdReduceCmp            0      0.00%     71.49% # Class of committed instruction. (Count)
system.cpu.commitStats0.committedInstType::SimdFloatReduceAdd            0      0.00%     71.49% # Class of committed instruction. (Count)
system.cpu.commitStats0.committedInstType::SimdFloatReduceCmp            0      0.00%     71.49% # Class of committed instruction. (Count)
system.cpu.commitStats0.committedInstType::SimdAes            0      0.00%     71.49% # Class of committed instruction. (Count)
system.cpu.commitStats0.committedInstType::SimdAesMix            0      0.00%     71.49% # Class of committed instruction. (Count)
system.cpu.commitStats0.committedInstType::SimdSha1Hash            0      0.00%     71.49% # Class of committed instruction. (Count)
system.cpu.commitStats0.committedInstType::SimdSha1Hash2            0      0.00%     71.49% # Class of committed instruction. (Count)
system.cpu.commitStats0.committedInstType::SimdSha256Hash            0      0.00%     71.49% # Class of committed instruction. (Count)
system.cpu.commitStats0.committedInstType::SimdSha256Hash2            0      0.00%     71.49% # Class of committed instruction. (Count)
system.cpu.commitStats0.committedInstType::SimdShaSigma2            0      0.00%     71.49% # Class of committed instruction. (Count)
system.cpu.commitStats0.committedInstType::SimdShaSigma3            0      0.00%     71.49% # Class of committed instruction. (Count)
system.cpu.commitStats0.committedInstType::SimdPredAlu            0      0.00%     71.49% # Class of committed instruction. (Count)
system.cpu.commitStats0.committedInstType::Matrix            0      0.00%     71.49% # Class of committed instruction. (Count)
system.cpu.commitStats0.committedInstType::MatrixMov            0      0.00%     71.49% # Class of committed instruction. (Count)
system.cpu.commitStats0.committedInstType::MatrixOP            0      0.00%     71.49% # Class of committed instruction. (Count)
system.cpu.commitStats0.committedInstType::MemRead     19539489     15.95%     87.44% # Class of committed instruction. (Count)
system.cpu.commitStats0.committedInstType::MemWrite     11146048      9.10%     96.54% # Class of committed instruction. (Count)
system.cpu.commitStats0.committedInstType::FloatMemRead      3023359      2.47%     99.01% # Class of committed instruction. (Count)
system.cpu.commitStats0.committedInstType::FloatMemWrite      1210438      0.99%    100.00% # Class of committed instruction. (Count)
system.cpu.commitStats0.committedInstType::IprAccess            0      0.00%    100.00% # Class of committed instruction. (Count)
system.cpu.commitStats0.committedInstType::InstPrefetch            0      0.00%    100.00% # Class of committed instruction. (Count)
system.cpu.commitStats0.committedInstType::SimdUnitStrideLoad            0      0.00%    100.00% # Class of committed instruction. (Count)
system.cpu.commitStats0.committedInstType::SimdUnitStrideStore            0      0.00%    100.00% # Class of committed instruction. (Count)
system.cpu.commitStats0.committedInstType::SimdUnitStrideMaskLoad            0      0.00%    100.00% # Class of committed instruction. (Count)
system.cpu.commitStats0.committedInstType::SimdUnitStrideMaskStore            0      0.00%    100.00% # Class of committed instruction. (Count)
system.cpu.commitStats0.committedInstType::SimdStridedLoad            0      0.00%    100.00% # Class of committed instruction. (Count)
system.cpu.commitStats0.committedInstType::SimdStridedStore            0      0.00%    100.00% # Class of committed instruction. (Count)
system.cpu.commitStats0.committedInstType::SimdIndexedLoad            0      0.00%    100.00% # Class of committed instruction. (Count)
system.cpu.commitStats0.committedInstType::SimdIndexedStore            0      0.00%    100.00% # Class of committed instruction. (Count)
system.cpu.commitStats0.committedInstType::SimdWholeRegisterLoad            0      0.00%    100.00% # Class of committed instruction. (Count)
system.cpu.commitStats0.committedInstType::SimdWholeRegisterStore            0      0.00%    100.00% # Class of committed instruction. (Count)
system.cpu.commitStats0.committedInstType::SimdUnitStrideFaultOnlyFirstLoad            0      0.00%    100.00% # Class of committed instruction. (Count)
system.cpu.commitStats0.committedInstType::SimdUnitStrideSegmentedLoad            0      0.00%    100.00% # Class of committed instruction. (Count)
system.cpu.commitStats0.committedInstType::SimdUnitStrideSegmentedStore            0      0.00%    100.00% # Class of committed instruction. (Count)
system.cpu.commitStats0.committedInstType::SimdExt            0      0.00%    100.00% # Class of committed instruction. (Count)
system.cpu.commitStats0.committedInstType::SimdFloatExt            0      0.00%    100.00% # Class of committed instruction. (Count)
system.cpu.commitStats0.committedInstType::SimdConfig            0      0.00%    100.00% # Class of committed instruction. (Count)
system.cpu.commitStats0.committedInstType::total    122483886                       # Class of committed instruction. (Count)
system.cpu.commitStats0.committedControl::IsControl     10595795                       # Class of control type instructions committed (Count)
system.cpu.commitStats0.committedControl::IsDirectControl      7523324                       # Class of control type instructions committed (Count)
system.cpu.commitStats0.committedControl::IsIndirectControl      3072471                       # Class of control type instructions committed (Count)
system.cpu.commitStats0.committedControl::IsCondControl      4776575                       # Class of control type instructions committed (Count)
system.cpu.commitStats0.committedControl::IsUncondControl      5819220                       # Class of control type instructions committed (Count)
system.cpu.commitStats0.committedControl::IsCall      2692274                       # Class of control type instructions committed (Count)
system.cpu.commitStats0.committedControl::IsReturn      2692270                       # Class of control type instructions committed (Count)
system.cpu.dcache.demandHits::cpu.data       34179517                       # number of demand (read+write) hits (Count)
system.cpu.dcache.demandHits::total          34179517                       # number of demand (read+write) hits (Count)
system.cpu.dcache.overallHits::cpu.data      34179517                       # number of overall hits (Count)
system.cpu.dcache.overallHits::total         34179517                       # number of overall hits (Count)
system.cpu.dcache.demandMisses::cpu.data       127568                       # number of demand (read+write) misses (Count)
system.cpu.dcache.demandMisses::total          127568                       # number of demand (read+write) misses (Count)
system.cpu.dcache.overallMisses::cpu.data       127568                       # number of overall misses (Count)
system.cpu.dcache.overallMisses::total         127568                       # number of overall misses (Count)
system.cpu.dcache.demandAccesses::cpu.data     34307085                       # number of demand (read+write) accesses (Count)
system.cpu.dcache.demandAccesses::total      34307085                       # number of demand (read+write) accesses (Count)
system.cpu.dcache.overallAccesses::cpu.data     34307085                       # number of overall (read+write) accesses (Count)
system.cpu.dcache.overallAccesses::total     34307085                       # number of overall (read+write) accesses (Count)
system.cpu.dcache.demandMissRate::cpu.data     0.003718                       # miss rate for demand accesses (Ratio)
system.cpu.dcache.demandMissRate::total      0.003718                       # miss rate for demand accesses (Ratio)
system.cpu.dcache.overallMissRate::cpu.data     0.003718                       # miss rate for overall accesses (Ratio)
system.cpu.dcache.overallMissRate::total     0.003718                       # miss rate for overall accesses (Ratio)
system.cpu.dcache.blockedCycles::no_mshrs            0                       # number of cycles access was blocked (Cycle)
system.cpu.dcache.blockedCycles::no_targets            0                       # number of cycles access was blocked (Cycle)
system.cpu.dcache.blockedCauses::no_mshrs            0                       # number of times access was blocked (Count)
system.cpu.dcache.blockedCauses::no_targets            0                       # number of times access was blocked (Count)
system.cpu.dcache.avgBlocked::no_mshrs            nan                       # average number of cycles each access was blocked ((Cycle/Count))
system.cpu.dcache.avgBlocked::no_targets          nan                       # average number of cycles each access was blocked ((Cycle/Count))
system.cpu.dcache.writebacks::writebacks        85564                       # number of writebacks (Count)
system.cpu.dcache.writebacks::total             85564                       # number of writebacks (Count)
system.cpu.dcache.replacements                 127058                       # number of replacements (Count)
system.cpu.dcache.LockedRMWReadReq.hits::cpu.data          171                       # number of LockedRMWReadReq hits (Count)
system.cpu.dcache.LockedRMWReadReq.hits::total          171                       # number of LockedRMWReadReq hits (Count)
system.cpu.dcache.LockedRMWReadReq.misses::cpu.data            2                       # number of LockedRMWReadReq misses (Count)
system.cpu.dcache.LockedRMWReadReq.misses::total            2                       # number of LockedRMWReadReq misses (Count)
system.cpu.dcache.LockedRMWReadReq.accesses::cpu.data          173                       # number of LockedRMWReadReq accesses(hits+misses) (Count)
system.cpu.dcache.LockedRMWReadReq.accesses::total          173                       # number of LockedRMWReadReq accesses(hits+misses) (Count)
system.cpu.dcache.LockedRMWReadReq.missRate::cpu.data     0.011561                       # miss rate for LockedRMWReadReq accesses (Ratio)
system.cpu.dcache.LockedRMWReadReq.missRate::total     0.011561                       # miss rate for LockedRMWReadReq accesses (Ratio)
system.cpu.dcache.LockedRMWWriteReq.hits::cpu.data          173                       # number of LockedRMWWriteReq hits (Count)
system.cpu.dcache.LockedRMWWriteReq.hits::total          173                       # number of LockedRMWWriteReq hits (Count)
system.cpu.dcache.LockedRMWWriteReq.accesses::cpu.data          173                       # number of LockedRMWWriteReq accesses(hits+misses) (Count)
system.cpu.dcache.LockedRMWWriteReq.accesses::total          173                       # number of LockedRMWWriteReq accesses(hits+misses) (Count)
system.cpu.dcache.ReadReq.hits::cpu.data     22208711                       # number of ReadReq hits (Count)
system.cpu.dcache.ReadReq.hits::total        22208711                       # number of ReadReq hits (Count)
system.cpu.dcache.ReadReq.misses::cpu.data        48975                       # number of ReadReq misses (Count)
system.cpu.dcache.ReadReq.misses::total         48975                       # number of ReadReq misses (Count)
system.cpu.dcache.ReadReq.accesses::cpu.data     22257686                       # number of ReadReq accesses(hits+misses) (Count)
system.cpu.dcache.ReadReq.accesses::total     22257686                       # number of ReadReq accesses(hits+misses) (Count)
system.cpu.dcache.ReadReq.missRate::cpu.data     0.002200                       # miss rate for ReadReq accesses (Ratio)
system.cpu.dcache.ReadReq.missRate::total     0.002200                       # miss rate for ReadReq accesses (Ratio)
system.cpu.dcache.WriteReq.hits::cpu.data     11970806                       # number of WriteReq hits (Count)
system.cpu.dcache.WriteReq.hits::total       11970806                       # number of WriteReq hits (Count)
system.cpu.dcache.WriteReq.misses::cpu.data        78593                       # number of WriteReq misses (Count)
system.cpu.dcache.WriteReq.misses::total        78593                       # number of WriteReq misses (Count)
system.cpu.dcache.WriteReq.accesses::cpu.data     12049399                       # number of WriteReq accesses(hits+misses) (Count)
system.cpu.dcache.WriteReq.accesses::total     12049399                       # number of WriteReq accesses(hits+misses) (Count)
system.cpu.dcache.WriteReq.missRate::cpu.data     0.006523                       # miss rate for WriteReq accesses (Ratio)
system.cpu.dcache.WriteReq.missRate::total     0.006523                       # miss rate for WriteReq accesses (Ratio)
system.cpu.dcache.power_state.pwrStateResidencyTicks::UNDEFINED  44818083445                       # Cumulative time (in ticks) in various power states (Tick)
system.cpu.dcache.tags.tagsInUse           511.830602                       # Average ticks per tags in use ((Tick/Count))
system.cpu.dcache.tags.totalRefs             34307431                       # Total number of references to valid blocks. (Count)
system.cpu.dcache.tags.sampledRefs             127570                       # Sample count of references to valid blocks. (Count)
system.cpu.dcache.tags.avgRefs             268.930242                       # Average number of references to valid blocks. ((Count/Count))
system.cpu.dcache.tags.warmupTick                 939                       # The tick when the warmup percentage was hit. (Tick)
system.cpu.dcache.tags.occupancies::cpu.data   511.830602                       # Average occupied blocks per tick, per requestor ((Count/Tick))
system.cpu.dcache.tags.avgOccs::cpu.data     0.999669                       # Average percentage of cache occupancy ((Ratio/Tick))
system.cpu.dcache.tags.avgOccs::total        0.999669                       # Average percentage of cache occupancy ((Ratio/Tick))
system.cpu.dcache.tags.occupanciesTaskId::1024          512                       # Occupied blocks per task id (Count)
system.cpu.dcache.tags.ageTaskId_1024::0          170                       # Occupied blocks per task id, per block age (Count)
system.cpu.dcache.tags.ageTaskId_1024::1          284                       # Occupied blocks per task id, per block age (Count)
system.cpu.dcache.tags.ageTaskId_1024::2           47                       # Occupied blocks per task id, per block age (Count)
system.cpu.dcache.tags.ageTaskId_1024::3           11                       # Occupied blocks per task id, per block age (Count)
system.cpu.dcache.tags.ratioOccsTaskId::1024            1                       # Ratio of occupied blocks and all blocks, per task id (Ratio)
system.cpu.dcache.tags.tagAccesses           68742432                       # Number of tag accesses (Count)
system.cpu.dcache.tags.dataAccesses          68742432                       # Number of data accesses (Count)
system.cpu.dcache.tags.power_state.pwrStateResidencyTicks::UNDEFINED  44818083445                       # Cumulative time (in ticks) in various power states (Tick)
system.cpu.dtb_walker_cache.blockedCycles::no_mshrs            0                       # number of cycles access was blocked (Cycle)
system.cpu.dtb_walker_cache.blockedCycles::no_targets            0                       # number of cycles access was blocked (Cycle)
system.cpu.dtb_walker_cache.blockedCauses::no_mshrs            0                       # number of times access was blocked (Count)
system.cpu.dtb_walker_cache.blockedCauses::no_targets            0                       # number of times access was blocked (Count)
system.cpu.dtb_walker_cache.avgBlocked::no_mshrs          nan                       # average number of cycles each access was blocked ((Cycle/Count))
system.cpu.dtb_walker_cache.avgBlocked::no_targets          nan                       # average number of cycles each access was blocked ((Cycle/Count))
system.cpu.dtb_walker_cache.replacements            0                       # number of replacements (Count)
system.cpu.dtb_walker_cache.power_state.pwrStateResidencyTicks::UNDEFINED  44818083445                       # Cumulative time (in ticks) in various power states (Tick)
system.cpu.dtb_walker_cache.tags.tagsInUse            0                       # Average ticks per tags in use ((Tick/Count))
system.cpu.dtb_walker_cache.tags.totalRefs            0                       # Total number of references to valid blocks. (Count)
system.cpu.dtb_walker_cache.tags.sampledRefs            0                       # Sample count of references to valid blocks. (Count)
system.cpu.dtb_walker_cache.tags.avgRefs          nan                       # Average number of references to valid blocks. ((Count/Count))
system.cpu.dtb_walker_cache.tags.warmupTick            0                       # The tick when the warmup percentage was hit. (Tick)
system.cpu.dtb_walker_cache.tags.tagAccesses            0                       # Number of tag accesses (Count)
system.cpu.dtb_walker_cache.tags.dataAccesses            0                       # Number of data accesses (Count)
system.cpu.dtb_walker_cache.tags.power_state.pwrStateResidencyTicks::UNDEFINED  44818083445                       # Cumulative time (in ticks) in various power states (Tick)
system.cpu.exec_context.thread_0.numMatAluAccesses            0                       # Number of matrix alu accesses (Count)
system.cpu.exec_context.thread_0.numCallsReturns      5384544                       # Number of times a function call or return occured (Count)
system.cpu.exec_context.thread_0.numMatInsts            0                       # Number of matrix instructions (Count)
system.cpu.exec_context.thread_0.numIdleCycles     0.003195                       # Number of idle cycles (Cycle)
system.cpu.exec_context.thread_0.numBusyCycles 143189143.996805                       # Number of busy cycles (Cycle)
system.cpu.exec_context.thread_0.notIdleFraction     1.000000                       # Percentage of non-idle cycles (Ratio)
system.cpu.exec_context.thread_0.idleFraction     0.000000                       # Percentage of idle cycles (Ratio)
system.cpu.executeStats0.numInsts                   0                       # Number of executed instructions (Count)
system.cpu.executeStats0.numNop                     0                       # Number of nop insts executed (Count)
system.cpu.executeStats0.numBranches                0                       # Number of branches executed (Count)
system.cpu.executeStats0.numLoadInsts               0                       # Number of load instructions executed (Count)
system.cpu.executeStats0.numStoreInsts       34919334                       # Number of stores executed (Count)
system.cpu.executeStats0.instRate                   0                       # Inst execution rate ((Count/Cycle))
system.cpu.executeStats0.numFpAluAccesses     11486405                       # Number of float alu accesses (Count)
system.cpu.executeStats0.numFpRegReads       10576522                       # Number of times the floating registers were read (Count)
system.cpu.executeStats0.numFpRegWrites       9368441                       # Number of times the floating registers were written (Count)
system.cpu.executeStats0.numIntAluAccesses    116106371                       # Number of integer alu accesses (Count)
system.cpu.executeStats0.numIntRegReads     138515303                       # Number of times the integer registers were read (Count)
system.cpu.executeStats0.numIntRegWrites     85428561                       # Number of times the integer registers were written (Count)
system.cpu.executeStats0.numMemRefs          34919334                       # Number of memory refs (Count)
system.cpu.executeStats0.numMiscRegReads     56806699                       # Number of times the Misc registers were read (Count)
system.cpu.executeStats0.numMiscRegWrites          234                       # Number of times the Misc registers were written (Count)
system.cpu.executeStats0.numVecAluAccesses            0                       # Number of vector alu accesses (Count)
system.cpu.executeStats0.numDiscardedOps            0                       # Number of ops (including micro ops) which were discarded before commit (Count)
system.cpu.fetchStats0.numInsts              67534208                       # Number of instructions fetched (thread level) (Count)
system.cpu.fetchStats0.numOps               122483886                       # Number of ops (including micro ops) fetched (thread level) (Count)
system.cpu.fetchStats0.fetchRate             0.471643                       # Number of inst fetches per cycle ((Count/Cycle))
system.cpu.fetchStats0.numBranches           10595795                       # Number of branches fetched (Count)
system.cpu.fetchStats0.branchRate            0.073999                       # Number of branch fetches per cycle (Ratio)
system.cpu.fetchStats0.numFetchSuspends             0                       # Number of times Execute suspended instruction fetching (Count)
system.cpu.icache.demandHits::cpu.inst       88236855                       # number of demand (read+write) hits (Count)
system.cpu.icache.demandHits::total          88236855                       # number of demand (read+write) hits (Count)
system.cpu.icache.overallHits::cpu.inst      88236855                       # number of overall hits (Count)
system.cpu.icache.overallHits::total         88236855                       # number of overall hits (Count)
system.cpu.icache.demandMisses::cpu.inst         2594                       # number of demand (read+write) misses (Count)
system.cpu.icache.demandMisses::total            2594                       # number of demand (read+write) misses (Count)
system.cpu.icache.overallMisses::cpu.inst         2594                       # number of overall misses (Count)
system.cpu.icache.overallMisses::total           2594                       # number of overall misses (Count)
system.cpu.icache.demandAccesses::cpu.inst     88239449                       # number of demand (read+write) accesses (Count)
system.cpu.icache.demandAccesses::total      88239449                       # number of demand (read+write) accesses (Count)
system.cpu.icache.overallAccesses::cpu.inst     88239449                       # number of overall (read+write) accesses (Count)
system.cpu.icache.overallAccesses::total     88239449                       # number of overall (read+write) accesses (Count)
system.cpu.icache.demandMissRate::cpu.inst     0.000029                       # miss rate for demand accesses (Ratio)
system.cpu.icache.demandMissRate::total      0.000029                       # miss rate for demand accesses (Ratio)
system.cpu.icache.overallMissRate::cpu.inst     0.000029                       # miss rate for overall accesses (Ratio)
system.cpu.icache.overallMissRate::total     0.000029                       # miss rate for overall accesses (Ratio)
system.cpu.icache.blockedCycles::no_mshrs            0                       # number of cycles access was blocked (Cycle)
system.cpu.icache.blockedCycles::no_targets            0                       # number of cycles access was blocked (Cycle)
system.cpu.icache.blockedCauses::no_mshrs            0                       # number of times access was blocked (Count)
system.cpu.icache.blockedCauses::no_targets            0                       # number of times access was blocked (Count)
system.cpu.icache.avgBlocked::no_mshrs            nan                       # average number of cycles each access was blocked ((Cycle/Count))
system.cpu.icache.avgBlocked::no_targets          nan                       # average number of cycles each access was blocked ((Cycle/Count))
system.cpu.icache.writebacks::writebacks         2082                       # number of writebacks (Count)
system.cpu.icache.writebacks::total              2082                       # number of writebacks (Count)
system.cpu.icache.replacements                   2082                       # number of replacements (Count)
system.cpu.icache.ReadReq.hits::cpu.inst     88236855                       # number of ReadReq hits (Count)
system.cpu.icache.ReadReq.hits::total        88236855                       # number of ReadReq hits (Count)
system.cpu.icache.ReadReq.misses::cpu.inst         2594                       # number of ReadReq misses (Count)
system.cpu.icache.ReadReq.misses::total          2594                       # number of ReadReq misses (Count)
system.cpu.icache.ReadReq.accesses::cpu.inst     88239449                       # number of ReadReq accesses(hits+misses) (Count)
system.cpu.icache.ReadReq.accesses::total     88239449                       # number of ReadReq accesses(hits+misses) (Count)
system.cpu.icache.ReadReq.missRate::cpu.inst     0.000029                       # miss rate for ReadReq accesses (Ratio)
system.cpu.icache.ReadReq.missRate::total     0.000029                       # miss rate for ReadReq accesses (Ratio)
system.cpu.icache.power_state.pwrStateResidencyTicks::UNDEFINED  44818083445                       # Cumulative time (in ticks) in various power states (Tick)
system.cpu.icache.tags.tagsInUse           511.569590                       # Average ticks per tags in use ((Tick/Count))
system.cpu.icache.tags.totalRefs             88239449                       # Total number of references to valid blocks. (Count)
system.cpu.icache.tags.sampledRefs               2594                       # Sample count of references to valid blocks. (Count)
system.cpu.icache.tags.avgRefs           34016.749807                       # Average number of references to valid blocks. ((Count/Count))
system.cpu.icache.tags.warmupTick                   0                       # The tick when the warmup percentage was hit. (Tick)
system.cpu.icache.tags.occupancies::cpu.inst   511.569590                       # Average occupied blocks per tick, per requestor ((Count/Tick))
system.cpu.icache.tags.avgOccs::cpu.inst     0.999159                       # Average percentage of cache occupancy ((Ratio/Tick))
system.cpu.icache.tags.avgOccs::total        0.999159                       # Average percentage of cache occupancy ((Ratio/Tick))
system.cpu.icache.tags.occupanciesTaskId::1024          512                       # Occupied blocks per task id (Count)
system.cpu.icache.tags.ageTaskId_1024::0          102                       # Occupied blocks per task id, per block age (Count)
system.cpu.icache.tags.ageTaskId_1024::2           88                       # Occupied blocks per task id, per block age (Count)
system.cpu.icache.tags.ageTaskId_1024::3           17                       # Occupied blocks per task id, per block age (Count)
system.cpu.icache.tags.ageTaskId_1024::4          305                       # Occupied blocks per task id, per block age (Count)
system.cpu.icache.tags.ratioOccsTaskId::1024            1                       # Ratio of occupied blocks and all blocks, per task id (Ratio)
system.cpu.icache.tags.tagAccesses          176481492                       # Number of tag accesses (Count)
system.cpu.icache.tags.dataAccesses         176481492                       # Number of data accesses (Count)
system.cpu.icache.tags.power_state.pwrStateResidencyTicks::UNDEFINED  44818083445                       # Cumulative time (in ticks) in various power states (Tick)
system.cpu.interrupts.clk_domain.clock           5008                       # Clock period in ticks (Tick)
system.cpu.itb_walker_cache.blockedCycles::no_mshrs            0                       # number of cycles access was blocked (Cycle)
system.cpu.itb_walker_cache.blockedCycles::no_targets            0                       # number of cycles access was blocked (Cycle)
system.cpu.itb_walker_cache.blockedCauses::no_mshrs            0                       # number of times access was blocked (Count)
system.cpu.itb_walker_cache.blockedCauses::no_targets            0                       # number of times access was blocked (Count)
system.cpu.itb_walker_cache.avgBlocked::no_mshrs          nan                       # average number of cycles each access was blocked ((Cycle/Count))
system.cpu.itb_walker_cache.avgBlocked::no_targets          nan                       # average number of cycles each access was blocked ((Cycle/Count))
system.cpu.itb_walker_cache.replacements            0                       # number of replacements (Count)
system.cpu.itb_walker_cache.power_state.pwrStateResidencyTicks::UNDEFINED  44818083445                       # Cumulative time (in ticks) in various power states (Tick)
system.cpu.itb_walker_cache.tags.tagsInUse            0                       # Average ticks per tags in use ((Tick/Count))
system.cpu.itb_walker_cache.tags.totalRefs            0                       # Total number of references to valid blocks. (Count)
system.cpu.itb_walker_cache.tags.sampledRefs            0                       # Sample count of references to valid blocks. (Count)
system.cpu.itb_walker_cache.tags.avgRefs          nan                       # Average number of references to valid blocks. ((Count/Count))
system.cpu.itb_walker_cache.tags.warmupTick            0                       # The tick when the warmup percentage was hit. (Tick)
system.cpu.itb_walker_cache.tags.tagAccesses            0                       # Number of tag accesses (Count)
system.cpu.itb_walker_cache.tags.dataAccesses            0                       # Number of data accesses (Count)
system.cpu.itb_walker_cache.tags.power_state.pwrStateResidencyTicks::UNDEFINED  44818083445                       # Cumulative time (in ticks) in various power states (Tick)
system.cpu.mmu.dtb.rdAccesses                22562867                       # TLB accesses on read requests (Count)
system.cpu.mmu.dtb.wrAccesses                12356507                       # TLB accesses on write requests (Count)
system.cpu.mmu.dtb.rdMisses                      1835                       # TLB misses on read requests (Count)
system.cpu.mmu.dtb.wrMisses                      2062                       # TLB misses on write requests (Count)
system.cpu.mmu.dtb.walker.power_state.pwrStateResidencyTicks::UNDEFINED  44818083445                       # Cumulative time (in ticks) in various power states (Tick)
system.cpu.mmu.itb.rdAccesses                       0                       # TLB accesses on read requests (Count)
system.cpu.mmu.itb.wrAccesses                88239523                       # TLB accesses on write requests (Count)
system.cpu.mmu.itb.rdMisses                         0                       # TLB misses on read requests (Count)
system.cpu.mmu.itb.wrMisses                       567                       # TLB misses on write requests (Count)
system.cpu.mmu.itb.walker.power_state.pwrStateResidencyTicks::UNDEFINED  44818083445                       # Cumulative time (in ticks) in various power states (Tick)
system.cpu.power_state.pwrStateResidencyTicks::ON  44818083445                       # Cumulative time (in ticks) in various power states (Tick)
system.cpu.thread_0.numInsts                        0                       # Number of Instructions committed (Count)
system.cpu.thread_0.numOps                          0                       # Number of Ops committed (Count)
system.cpu.thread_0.numMemRefs                      0                       # Number of Memory References (Count)
system.cpu.workload.numSyscalls                   163                       # Number of system calls (Count)
system.cpu_clk_domain.clock                       313                       # Clock period in ticks (Tick)
system.cpu_voltage_domain.voltage                   1                       # Voltage in Volts (Volt)
system.l2.demandHits::cpu.inst                    641                       # number of demand (read+write) hits (Count)
system.l2.demandHits::cpu.data                  10143                       # number of demand (read+write) hits (Count)
system.l2.demandHits::total                     10784                       # number of demand (read+write) hits (Count)
system.l2.overallHits::cpu.inst                   641                       # number of overall hits (Count)
system.l2.overallHits::cpu.data                 10143                       # number of overall hits (Count)
system.l2.overallHits::total                    10784                       # number of overall hits (Count)
system.l2.demandMisses::cpu.inst                 1953                       # number of demand (read+write) misses (Count)
system.l2.demandMisses::cpu.data               117427                       # number of demand (read+write) misses (Count)
system.l2.demandMisses::total                  119380                       # number of demand (read+write) misses (Count)
system.l2.overallMisses::cpu.inst                1953                       # number of overall misses (Count)
system.l2.overallMisses::cpu.data              117427                       # number of overall misses (Count)
system.l2.overallMisses::total                 119380                       # number of overall misses (Count)
system.l2.demandAccesses::cpu.inst               2594                       # number of demand (read+write) accesses (Count)
system.l2.demandAccesses::cpu.data             127570                       # number of demand (read+write) accesses (Count)
system.l2.demandAccesses::total                130164                       # number of demand (read+write) accesses (Count)
system.l2.overallAccesses::cpu.inst              2594                       # number of overall (read+write) accesses (Count)
system.l2.overallAccesses::cpu.data            127570                       # number of overall (read+write) accesses (Count)
system.l2.overallAccesses::total               130164                       # number of overall (read+write) accesses (Count)
system.l2.demandMissRate::cpu.inst           0.752891                       # miss rate for demand accesses (Ratio)
system.l2.demandMissRate::cpu.data           0.920491                       # miss rate for demand accesses (Ratio)
system.l2.demandMissRate::total              0.917151                       # miss rate for demand accesses (Ratio)
system.l2.overallMissRate::cpu.inst          0.752891                       # miss rate for overall accesses (Ratio)
system.l2.overallMissRate::cpu.data          0.920491                       # miss rate for overall accesses (Ratio)
system.l2.overallMissRate::total             0.917151                       # miss rate for overall accesses (Ratio)
system.l2.blockedCycles::no_mshrs                   0                       # number of cycles access was blocked (Cycle)
system.l2.blockedCycles::no_targets                 0                       # number of cycles access was blocked (Cycle)
system.l2.blockedCauses::no_mshrs                   0                       # number of times access was blocked (Count)
system.l2.blockedCauses::no_targets                 0                       # number of times access was blocked (Count)
system.l2.avgBlocked::no_mshrs                    nan                       # average number of cycles each access was blocked ((Cycle/Count))
system.l2.avgBlocked::no_targets                  nan                       # average number of cycles each access was blocked ((Cycle/Count))
system.l2.writebacks::writebacks                75409                       # number of writebacks (Count)
system.l2.writebacks::total                     75409                       # number of writebacks (Count)
system.l2.replacements                          86921                       # number of replacements (Count)
system.l2.ReadCleanReq.hits::cpu.inst             641                       # number of ReadCleanReq hits (Count)
system.l2.ReadCleanReq.hits::total                641                       # number of ReadCleanReq hits (Count)
system.l2.ReadCleanReq.misses::cpu.inst          1953                       # number of ReadCleanReq misses (Count)
system.l2.ReadCleanReq.misses::total             1953                       # number of ReadCleanReq misses (Count)
system.l2.ReadCleanReq.accesses::cpu.inst         2594                       # number of ReadCleanReq accesses(hits+misses) (Count)
system.l2.ReadCleanReq.accesses::total           2594                       # number of ReadCleanReq accesses(hits+misses) (Count)
system.l2.ReadCleanReq.missRate::cpu.inst     0.752891                       # miss rate for ReadCleanReq accesses (Ratio)
system.l2.ReadCleanReq.missRate::total       0.752891                       # miss rate for ReadCleanReq accesses (Ratio)
system.l2.ReadExReq.hits::cpu.data               1779                       # number of ReadExReq hits (Count)
system.l2.ReadExReq.hits::total                  1779                       # number of ReadExReq hits (Count)
system.l2.ReadExReq.misses::cpu.data            76816                       # number of ReadExReq misses (Count)
system.l2.ReadExReq.misses::total               76816                       # number of ReadExReq misses (Count)
system.l2.ReadExReq.accesses::cpu.data          78595                       # number of ReadExReq accesses(hits+misses) (Count)
system.l2.ReadExReq.accesses::total             78595                       # number of ReadExReq accesses(hits+misses) (Count)
system.l2.ReadExReq.missRate::cpu.data       0.977365                       # miss rate for ReadExReq accesses (Ratio)
system.l2.ReadExReq.missRate::total          0.977365                       # miss rate for ReadExReq accesses (Ratio)
system.l2.ReadSharedReq.hits::cpu.data           8364                       # number of ReadSharedReq hits (Count)
system.l2.ReadSharedReq.hits::total              8364                       # number of ReadSharedReq hits (Count)
system.l2.ReadSharedReq.misses::cpu.data        40611                       # number of ReadSharedReq misses (Count)
system.l2.ReadSharedReq.misses::total           40611                       # number of ReadSharedReq misses (Count)
system.l2.ReadSharedReq.accesses::cpu.data        48975                       # number of ReadSharedReq accesses(hits+misses) (Count)
system.l2.ReadSharedReq.accesses::total         48975                       # number of ReadSharedReq accesses(hits+misses) (Count)
system.l2.ReadSharedReq.missRate::cpu.data     0.829219                       # miss rate for ReadSharedReq accesses (Ratio)
system.l2.ReadSharedReq.missRate::total      0.829219                       # miss rate for ReadSharedReq accesses (Ratio)
system.l2.WritebackClean.hits::writebacks         2082                       # number of WritebackClean hits (Count)
system.l2.WritebackClean.hits::total             2082                       # number of WritebackClean hits (Count)
system.l2.WritebackClean.accesses::writebacks         2082                       # number of WritebackClean accesses(hits+misses) (Count)
system.l2.WritebackClean.accesses::total         2082                       # number of WritebackClean accesses(hits+misses) (Count)
system.l2.WritebackDirty.hits::writebacks        85564                       # number of WritebackDirty hits (Count)
system.l2.WritebackDirty.hits::total            85564                       # number of WritebackDirty hits (Count)
system.l2.WritebackDirty.accesses::writebacks        85564                       # number of WritebackDirty accesses(hits+misses) (Count)
system.l2.WritebackDirty.accesses::total        85564                       # number of WritebackDirty accesses(hits+misses) (Count)
system.l2.power_state.pwrStateResidencyTicks::UNDEFINED  44818083445                       # Cumulative time (in ticks) in various power states (Tick)
system.l2.tags.tagsInUse                 30217.705991                       # Average ticks per tags in use ((Tick/Count))
system.l2.tags.totalRefs                       259301                       # Total number of references to valid blocks. (Count)
system.l2.tags.sampledRefs                     119689                       # Sample count of references to valid blocks. (Count)
system.l2.tags.avgRefs                       2.166456                       # Average number of references to valid blocks. ((Count/Count))
system.l2.tags.warmupTick                           0                       # The tick when the warmup percentage was hit. (Tick)
system.l2.tags.occupancies::writebacks      37.975008                       # Average occupied blocks per tick, per requestor ((Count/Tick))
system.l2.tags.occupancies::cpu.inst       182.600998                       # Average occupied blocks per tick, per requestor ((Count/Tick))
system.l2.tags.occupancies::cpu.data     29997.129985                       # Average occupied blocks per tick, per requestor ((Count/Tick))
system.l2.tags.avgOccs::writebacks           0.001159                       # Average percentage of cache occupancy ((Ratio/Tick))
system.l2.tags.avgOccs::cpu.inst             0.005573                       # Average percentage of cache occupancy ((Ratio/Tick))
system.l2.tags.avgOccs::cpu.data             0.915440                       # Average percentage of cache occupancy ((Ratio/Tick))
system.l2.tags.avgOccs::total                0.922171                       # Average percentage of cache occupancy ((Ratio/Tick))
system.l2.tags.occupanciesTaskId::1024          32768                       # Occupied blocks per task id (Count)
system.l2.tags.ageTaskId_1024::0                  271                       # Occupied blocks per task id, per block age (Count)
system.l2.tags.ageTaskId_1024::1                    2                       # Occupied blocks per task id, per block age (Count)
system.l2.tags.ageTaskId_1024::2                  470                       # Occupied blocks per task id, per block age (Count)
system.l2.tags.ageTaskId_1024::3                17142                       # Occupied blocks per task id, per block age (Count)
system.l2.tags.ageTaskId_1024::4                14883                       # Occupied blocks per task id, per block age (Count)
system.l2.tags.ratioOccsTaskId::1024                1                       # Ratio of occupied blocks and all blocks, per task id (Ratio)
system.l2.tags.tagAccesses                    2194121                       # Number of tag accesses (Count)
system.l2.tags.dataAccesses                   2194121                       # Number of data accesses (Count)
system.l2.tags.power_state.pwrStateResidencyTicks::UNDEFINED  44818083445                       # Cumulative time (in ticks) in various power states (Tick)
system.mem_ctrls.bytesRead::cpu.inst           124992                       # Number of bytes read from this memory (Byte)
system.mem_ctrls.bytesRead::cpu.data          7844647                       # Number of bytes read from this memory (Byte)
system.mem_ctrls.bytesRead::total             7969639                       # Number of bytes read from this memory (Byte)
system.mem_ctrls.bytesInstRead::cpu.inst       124992                       # Number of instructions bytes read from this memory (Byte)
system.mem_ctrls.bytesInstRead::total          124992                       # Number of instructions bytes read from this memory (Byte)
system.mem_ctrls.bytesWritten::writebacks      4826176                       # Number of bytes written to this memory (Byte)
system.mem_ctrls.bytesWritten::cpu.data        339032                       # Number of bytes written to this memory (Byte)
system.mem_ctrls.bytesWritten::total          5165208                       # Number of bytes written to this memory (Byte)
system.mem_ctrls.numReads::cpu.inst              1953                       # Number of read requests responded to by this memory (Count)
system.mem_ctrls.numReads::cpu.data            422365                       # Number of read requests responded to by this memory (Count)
system.mem_ctrls.numReads::total               424318                       # Number of read requests responded to by this memory (Count)
system.mem_ctrls.numWrites::writebacks          75409                       # Number of write requests responded to by this memory (Count)
system.mem_ctrls.numWrites::cpu.data           306217                       # Number of write requests responded to by this memory (Count)
system.mem_ctrls.numWrites::total              381626                       # Number of write requests responded to by this memory (Count)
system.mem_ctrls.bwRead::cpu.inst             2788874                       # Total read bandwidth from this memory ((Byte/Second))
system.mem_ctrls.bwRead::cpu.data           175033076                       # Total read bandwidth from this memory ((Byte/Second))
system.mem_ctrls.bwRead::total              177821950                       # Total read bandwidth from this memory ((Byte/Second))
system.mem_ctrls.bwInstRead::cpu.inst         2788874                       # Instruction read bandwidth from this memory ((Byte/Second))
system.mem_ctrls.bwInstRead::total            2788874                       # Instruction read bandwidth from this memory ((Byte/Second))
system.mem_ctrls.bwWrite::writebacks        107683677                       # Write bandwidth from this memory ((Byte/Second))
system.mem_ctrls.bwWrite::cpu.data            7564625                       # Write bandwidth from this memory ((Byte/Second))
system.mem_ctrls.bwWrite::total             115248302                       # Write bandwidth from this memory ((Byte/Second))
system.mem_ctrls.bwTotal::writebacks        107683677                       # Total bandwidth to/from this memory ((Byte/Second))
system.mem_ctrls.bwTotal::cpu.inst            2788874                       # Total bandwidth to/from this memory ((Byte/Second))
system.mem_ctrls.bwTotal::cpu.data          182597701                       # Total bandwidth to/from this memory ((Byte/Second))
system.mem_ctrls.bwTotal::total             293070252                       # Total bandwidth to/from this memory ((Byte/Second))
system.mem_ctrls.power_state.pwrStateResidencyTicks::UNDEFINED  44818083445                       # Cumulative time (in ticks) in various power states (Tick)
system.membus.transDist::ReadReq               304938                       # Transaction distribution (Count)
system.membus.transDist::ReadResp              347502                       # Transaction distribution (Count)
system.membus.transDist::WriteReq              306217                       # Transaction distribution (Count)
system.membus.transDist::WriteResp             306217                       # Transaction distribution (Count)
system.membus.transDist::WritebackDirty         75409                       # Transaction distribution (Count)
system.membus.transDist::CleanEvict             10898                       # Transaction distribution (Count)
system.membus.transDist::ReadExReq              76816                       # Transaction distribution (Count)
system.membus.transDist::ReadExResp             76816                       # Transaction distribution (Count)
system.membus.transDist::ReadSharedReq          42564                       # Transaction distribution (Count)
system.membus.pktCount_system.l2.mem_side_port::system.mem_ctrls.port      1547377                       # Packet count per connected requestor and responder (Count)
system.membus.pktCount_system.l2.mem_side_port::total      1547377                       # Packet count per connected requestor and responder (Count)
system.membus.pktCount::total                 1547377                       # Packet count per connected requestor and responder (Count)
system.membus.pktSize_system.l2.mem_side_port::system.mem_ctrls.port     13134847                       # Cumulative packet size per connected requestor and responder (Byte)
system.membus.pktSize_system.l2.mem_side_port::total     13134847                       # Cumulative packet size per connected requestor and responder (Byte)
system.membus.pktSize::total                 13134847                       # Cumulative packet size per connected requestor and responder (Byte)
system.membus.snoops                                0                       # Total snoops (Count)
system.membus.snoopTraffic                          0                       # Total snoop traffic (Byte)
system.membus.snoopFanout::samples             730535                       # Request fanout histogram (Count)
system.membus.snoopFanout::mean                     0                       # Request fanout histogram (Count)
system.membus.snoopFanout::stdev                    0                       # Request fanout histogram (Count)
system.membus.snoopFanout::underflows               0      0.00%      0.00% # Request fanout histogram (Count)
system.membus.snoopFanout::0                   730535    100.00%    100.00% # Request fanout histogram (Count)
system.membus.snoopFanout::1                        0      0.00%    100.00% # Request fanout histogram (Count)
system.membus.snoopFanout::overflows                0      0.00%    100.00% # Request fanout histogram (Count)
system.membus.snoopFanout::min_value                0                       # Request fanout histogram (Count)
system.membus.snoopFanout::max_value                0                       # Request fanout histogram (Count)
system.membus.snoopFanout::total               730535                       # Request fanout histogram (Count)
system.membus.power_state.pwrStateResidencyTicks::UNDEFINED  44818083445                       # Cumulative time (in ticks) in various power states (Tick)
system.membus.snoop_filter.totRequests         205687                       # Total number of requests made to the snoop filter. (Count)
system.membus.snoop_filter.hitSingleRequests        86307                       # Number of requests hitting in the snoop filter with a single holder of the requested data. (Count)
system.membus.snoop_filter.hitMultiRequests            0                       # Number of requests hitting in the snoop filter with multiple (>1) holders of the requested data. (Count)
system.membus.snoop_filter.totSnoops                0                       # Total number of snoops made to the snoop filter. (Count)
system.membus.snoop_filter.hitSingleSnoops            0                       # Number of snoops hitting in the snoop filter with a single holder of the requested data. (Count)
system.membus.snoop_filter.hitMultiSnoops            0                       # Number of snoops hitting in the snoop filter with multiple (>1) holders of the requested data. (Count)
system.tol2bus.transDist::ReadReq              304938                       # Transaction distribution (Count)
system.tol2bus.transDist::ReadResp             356507                       # Transaction distribution (Count)
system.tol2bus.transDist::WriteReq             306217                       # Transaction distribution (Count)
system.tol2bus.transDist::WriteResp            306217                       # Transaction distribution (Count)
system.tol2bus.transDist::WritebackDirty        85564                       # Transaction distribution (Count)
system.tol2bus.transDist::WritebackClean         2082                       # Transaction distribution (Count)
system.tol2bus.transDist::CleanEvict            41494                       # Transaction distribution (Count)
system.tol2bus.transDist::ReadExReq             78595                       # Transaction distribution (Count)
system.tol2bus.transDist::ReadExResp            78595                       # Transaction distribution (Count)
system.tol2bus.transDist::ReadCleanReq           2594                       # Transaction distribution (Count)
system.tol2bus.transDist::ReadSharedReq         48975                       # Transaction distribution (Count)
system.tol2bus.pktCount_system.cpu.icache.mem_side_port::system.l2.cpu_side_port         7270                       # Packet count per connected requestor and responder (Count)
system.tol2bus.pktCount_system.cpu.dcache.mem_side_port::system.l2.cpu_side_port      1604508                       # Packet count per connected requestor and responder (Count)
system.tol2bus.pktCount::total                1611778                       # Packet count per connected requestor and responder (Count)
system.tol2bus.pktSize_system.cpu.icache.mem_side_port::system.l2.cpu_side_port       299264                       # Cumulative packet size per connected requestor and responder (Byte)
system.tol2bus.pktSize_system.cpu.dcache.mem_side_port::system.l2.cpu_side_port     14308927                       # Cumulative packet size per connected requestor and responder (Byte)
system.tol2bus.pktSize::total                14608191                       # Cumulative packet size per connected requestor and responder (Byte)
system.tol2bus.snoops                           86921                       # Total snoops (Count)
system.tol2bus.snoopTraffic                   4826176                       # Total snoop traffic (Byte)
system.tol2bus.snoopFanout::samples            828240                       # Request fanout histogram (Count)
system.tol2bus.snoopFanout::mean             0.000745                       # Request fanout histogram (Count)
system.tol2bus.snoopFanout::stdev            0.027284                       # Request fanout histogram (Count)
system.tol2bus.snoopFanout::underflows              0      0.00%      0.00% # Request fanout histogram (Count)
system.tol2bus.snoopFanout::0                  827623     99.93%     99.93% # Request fanout histogram (Count)
system.tol2bus.snoopFanout::1                     617      0.07%    100.00% # Request fanout histogram (Count)
system.tol2bus.snoopFanout::2                       0      0.00%    100.00% # Request fanout histogram (Count)
system.tol2bus.snoopFanout::3                       0      0.00%    100.00% # Request fanout histogram (Count)
system.tol2bus.snoopFanout::4                       0      0.00%    100.00% # Request fanout histogram (Count)
system.tol2bus.snoopFanout::overflows               0      0.00%    100.00% # Request fanout histogram (Count)
system.tol2bus.snoopFanout::min_value               0                       # Request fanout histogram (Count)
system.tol2bus.snoopFanout::max_value               1                       # Request fanout histogram (Count)
system.tol2bus.snoopFanout::total              828240                       # Request fanout histogram (Count)
system.tol2bus.power_state.pwrStateResidencyTicks::UNDEFINED  44818083445                       # Cumulative time (in ticks) in various power states (Tick)
system.tol2bus.snoop_filter.totRequests        259304                       # Total number of requests made to the snoop filter. (Count)
system.tol2bus.snoop_filter.hitSingleRequests       129140                       # Number of requests hitting in the snoop filter with a single holder of the requested data. (Count)
system.tol2bus.snoop_filter.hitMultiRequests            0                       # Number of requests hitting in the snoop filter with multiple (>1) holders of the requested data. (Count)
system.tol2bus.snoop_filter.totSnoops             617                       # Total number of snoops made to the snoop filter. (Count)
system.tol2bus.snoop_filter.hitSingleSnoops          617                       # Number of snoops hitting in the snoop filter with a single holder of the requested data. (Count)
system.tol2bus.snoop_filter.hitMultiSnoops            0                       # Number of snoops hitting in the snoop filter with multiple (>1) holders of the requested data. (Count)
system.voltage_domain.voltage                       1                       # Voltage in Volts (Volt)
system.workload.inst.arm                            0                       # number of arm instructions executed (Count)
system.workload.inst.quiesce                        0                       # number of quiesce instructions executed (Count)

---------- End Simulation Statistics   ----------
