
---------- Begin Simulation Statistics ----------
simSeconds                                   7.597135                       # Number of seconds simulated (Second)
simTicks                                 7597135078528                       # Number of ticks simulated (Tick)
finalTick                                7597135078528                       # Number of ticks from beginning of simulation (restored from checkpoints and never reset) (Tick)
simFreq                                  1000000000000                       # The number of ticks per simulated second ((Tick/Second))
hostSeconds                                  61854.14                       # Real time elapsed on the host (Second)
hostTickRate                                122823392                       # The number of ticks simulated per host second (ticks/s) ((Tick/Second))
hostMemory                                    8168000                       # Number of bytes of host memory used (Byte)
simInsts                                  13490908355                       # Number of instructions simulated (Count)
simOps                                    22379703042                       # Number of ops (including micro ops) simulated (Count)
hostInstRate                                   218108                       # Simulator instruction rate (inst/s) ((Count/Second))
hostOpRate                                     361814                       # Simulator op (including micro ops) rate (op/s) ((Count/Second))
system.clk_domain.clock                          2500                       # Clock period in ticks (Tick)
system.cpu0.numCycles                     24271997057                       # Number of cpu cycles simulated (Cycle)
system.cpu0.cpi                              1.799137                       # CPI: cycles per instruction (core level) ((Cycle/Count))
system.cpu0.ipc                              0.555822                       # IPC: instructions per cycle (core level) ((Count/Cycle))
system.cpu0.numWorkItemsStarted                     0                       # Number of work items this cpu started (Count)
system.cpu0.numWorkItemsCompleted                   0                       # Number of work items this cpu completed (Count)
system.cpu0.instsAdded                    22429150252                       # Number of instructions added to the IQ (excludes non-spec) (Count)
system.cpu0.nonSpecInstsAdded                   13055                       # Number of non-speculative instructions added to the IQ (Count)
system.cpu0.instsIssued                   22414087690                       # Number of instructions issued (Count)
system.cpu0.squashedInstsIssued                 28558                       # Number of squashed instructions issued (Count)
system.cpu0.squashedInstsExamined            49460259                       # Number of squashed instructions iterated over during squash; mainly for profiling (Count)
system.cpu0.squashedOperandsExamined         66936527                       # Number of squashed operands that are examined and possibly removed from graph (Count)
system.cpu0.squashedNonSpecRemoved               9068                       # Number of squashed non-spec instructions that were removed (Count)
system.cpu0.numIssuedDist::samples        24251526084                       # Number of insts issued each cycle (Count)
system.cpu0.numIssuedDist::mean              0.924234                       # Number of insts issued each cycle (Count)
system.cpu0.numIssuedDist::stdev             1.574947                       # Number of insts issued each cycle (Count)
system.cpu0.numIssuedDist::underflows               0      0.00%      0.00% # Number of insts issued each cycle (Count)
system.cpu0.numIssuedDist::0              16063982020     66.24%     66.24% # Number of insts issued each cycle (Count)
system.cpu0.numIssuedDist::1               2353554851      9.70%     75.94% # Number of insts issued each cycle (Count)
system.cpu0.numIssuedDist::2               1755087355      7.24%     83.18% # Number of insts issued each cycle (Count)
system.cpu0.numIssuedDist::3               1511015697      6.23%     89.41% # Number of insts issued each cycle (Count)
system.cpu0.numIssuedDist::4               1286950704      5.31%     94.72% # Number of insts issued each cycle (Count)
system.cpu0.numIssuedDist::5                887998386      3.66%     98.38% # Number of insts issued each cycle (Count)
system.cpu0.numIssuedDist::6                334140926      1.38%     99.76% # Number of insts issued each cycle (Count)
system.cpu0.numIssuedDist::7                 45698424      0.19%     99.95% # Number of insts issued each cycle (Count)
system.cpu0.numIssuedDist::8                 13097721      0.05%    100.00% # Number of insts issued each cycle (Count)
system.cpu0.numIssuedDist::overflows                0      0.00%    100.00% # Number of insts issued each cycle (Count)
system.cpu0.numIssuedDist::min_value                0                       # Number of insts issued each cycle (Count)
system.cpu0.numIssuedDist::max_value                8                       # Number of insts issued each cycle (Count)
system.cpu0.numIssuedDist::total          24251526084                       # Number of insts issued each cycle (Count)
system.cpu0.statFuBusy::No_OpClass                  0      0.00%      0.00% # attempts to use FU when none available (Count)
system.cpu0.statFuBusy::IntAlu               13580838     10.95%     10.95% # attempts to use FU when none available (Count)
system.cpu0.statFuBusy::IntMult                     0      0.00%     10.95% # attempts to use FU when none available (Count)
system.cpu0.statFuBusy::IntDiv                      0      0.00%     10.95% # attempts to use FU when none available (Count)
system.cpu0.statFuBusy::FloatAdd                    0      0.00%     10.95% # attempts to use FU when none available (Count)
system.cpu0.statFuBusy::FloatCmp                    0      0.00%     10.95% # attempts to use FU when none available (Count)
system.cpu0.statFuBusy::FloatCvt                    1      0.00%     10.95% # attempts to use FU when none available (Count)
system.cpu0.statFuBusy::FloatMult                   0      0.00%     10.95% # attempts to use FU when none available (Count)
system.cpu0.statFuBusy::FloatMultAcc                0      0.00%     10.95% # attempts to use FU when none available (Count)
system.cpu0.statFuBusy::FloatDiv                    0      0.00%     10.95% # attempts to use FU when none available (Count)
system.cpu0.statFuBusy::FloatMisc                   0      0.00%     10.95% # attempts to use FU when none available (Count)
system.cpu0.statFuBusy::FloatSqrt                   0      0.00%     10.95% # attempts to use FU when none available (Count)
system.cpu0.statFuBusy::SimdAdd                     0      0.00%     10.95% # attempts to use FU when none available (Count)
system.cpu0.statFuBusy::SimdAddAcc                  0      0.00%     10.95% # attempts to use FU when none available (Count)
system.cpu0.statFuBusy::SimdAlu                  5018      0.00%     10.95% # attempts to use FU when none available (Count)
system.cpu0.statFuBusy::SimdCmp                     0      0.00%     10.95% # attempts to use FU when none available (Count)
system.cpu0.statFuBusy::SimdCvt                     6      0.00%     10.95% # attempts to use FU when none available (Count)
system.cpu0.statFuBusy::SimdMisc                    1      0.00%     10.95% # attempts to use FU when none available (Count)
system.cpu0.statFuBusy::SimdMult                    0      0.00%     10.95% # attempts to use FU when none available (Count)
system.cpu0.statFuBusy::SimdMultAcc                 0      0.00%     10.95% # attempts to use FU when none available (Count)
system.cpu0.statFuBusy::SimdMatMultAcc              0      0.00%     10.95% # attempts to use FU when none available (Count)
system.cpu0.statFuBusy::SimdShift                   0      0.00%     10.95% # attempts to use FU when none available (Count)
system.cpu0.statFuBusy::SimdShiftAcc                0      0.00%     10.95% # attempts to use FU when none available (Count)
system.cpu0.statFuBusy::SimdDiv                     0      0.00%     10.95% # attempts to use FU when none available (Count)
system.cpu0.statFuBusy::SimdSqrt                    0      0.00%     10.95% # attempts to use FU when none available (Count)
system.cpu0.statFuBusy::SimdFloatAdd                0      0.00%     10.95% # attempts to use FU when none available (Count)
system.cpu0.statFuBusy::SimdFloatAlu                0      0.00%     10.95% # attempts to use FU when none available (Count)
system.cpu0.statFuBusy::SimdFloatCmp                0      0.00%     10.95% # attempts to use FU when none available (Count)
system.cpu0.statFuBusy::SimdFloatCvt                0      0.00%     10.95% # attempts to use FU when none available (Count)
system.cpu0.statFuBusy::SimdFloatDiv                0      0.00%     10.95% # attempts to use FU when none available (Count)
system.cpu0.statFuBusy::SimdFloatMisc               0      0.00%     10.95% # attempts to use FU when none available (Count)
system.cpu0.statFuBusy::SimdFloatMult               0      0.00%     10.95% # attempts to use FU when none available (Count)
system.cpu0.statFuBusy::SimdFloatMultAcc            0      0.00%     10.95% # attempts to use FU when none available (Count)
system.cpu0.statFuBusy::SimdFloatMatMultAcc            0      0.00%     10.95% # attempts to use FU when none available (Count)
system.cpu0.statFuBusy::SimdFloatSqrt               0      0.00%     10.95% # attempts to use FU when none available (Count)
system.cpu0.statFuBusy::SimdReduceAdd               0      0.00%     10.95% # attempts to use FU when none available (Count)
system.cpu0.statFuBusy::SimdReduceAlu               0      0.00%     10.95% # attempts to use FU when none available (Count)
system.cpu0.statFuBusy::SimdReduceCmp               0      0.00%     10.95% # attempts to use FU when none available (Count)
system.cpu0.statFuBusy::SimdFloatReduceAdd            0      0.00%     10.95% # attempts to use FU when none available (Count)
system.cpu0.statFuBusy::SimdFloatReduceCmp            0      0.00%     10.95% # attempts to use FU when none available (Count)
system.cpu0.statFuBusy::SimdAes                     0      0.00%     10.95% # attempts to use FU when none available (Count)
system.cpu0.statFuBusy::SimdAesMix                  0      0.00%     10.95% # attempts to use FU when none available (Count)
system.cpu0.statFuBusy::SimdSha1Hash                0      0.00%     10.95% # attempts to use FU when none available (Count)
system.cpu0.statFuBusy::SimdSha1Hash2               0      0.00%     10.95% # attempts to use FU when none available (Count)
system.cpu0.statFuBusy::SimdSha256Hash              0      0.00%     10.95% # attempts to use FU when none available (Count)
system.cpu0.statFuBusy::SimdSha256Hash2             0      0.00%     10.95% # attempts to use FU when none available (Count)
system.cpu0.statFuBusy::SimdShaSigma2               0      0.00%     10.95% # attempts to use FU when none available (Count)
system.cpu0.statFuBusy::SimdShaSigma3               0      0.00%     10.95% # attempts to use FU when none available (Count)
system.cpu0.statFuBusy::SimdPredAlu                 0      0.00%     10.95% # attempts to use FU when none available (Count)
system.cpu0.statFuBusy::Matrix                      0      0.00%     10.95% # attempts to use FU when none available (Count)
system.cpu0.statFuBusy::MatrixMov                   0      0.00%     10.95% # attempts to use FU when none available (Count)
system.cpu0.statFuBusy::MatrixOP                    0      0.00%     10.95% # attempts to use FU when none available (Count)
system.cpu0.statFuBusy::MemRead              94120607     75.87%     86.82% # attempts to use FU when none available (Count)
system.cpu0.statFuBusy::MemWrite             16315742     13.15%     99.97% # attempts to use FU when none available (Count)
system.cpu0.statFuBusy::FloatMemRead            29729      0.02%    100.00% # attempts to use FU when none available (Count)
system.cpu0.statFuBusy::FloatMemWrite            1612      0.00%    100.00% # attempts to use FU when none available (Count)
system.cpu0.statFuBusy::IprAccess                   0      0.00%    100.00% # attempts to use FU when none available (Count)
system.cpu0.statFuBusy::InstPrefetch                0      0.00%    100.00% # attempts to use FU when none available (Count)
system.cpu0.statFuBusy::SimdUnitStrideLoad            0      0.00%    100.00% # attempts to use FU when none available (Count)
system.cpu0.statFuBusy::SimdUnitStrideStore            0      0.00%    100.00% # attempts to use FU when none available (Count)
system.cpu0.statFuBusy::SimdUnitStrideMaskLoad            0      0.00%    100.00% # attempts to use FU when none available (Count)
system.cpu0.statFuBusy::SimdUnitStrideMaskStore            0      0.00%    100.00% # attempts to use FU when none available (Count)
system.cpu0.statFuBusy::SimdStridedLoad             0      0.00%    100.00% # attempts to use FU when none available (Count)
system.cpu0.statFuBusy::SimdStridedStore            0      0.00%    100.00% # attempts to use FU when none available (Count)
system.cpu0.statFuBusy::SimdIndexedLoad             0      0.00%    100.00% # attempts to use FU when none available (Count)
system.cpu0.statFuBusy::SimdIndexedStore            0      0.00%    100.00% # attempts to use FU when none available (Count)
system.cpu0.statFuBusy::SimdWholeRegisterLoad            0      0.00%    100.00% # attempts to use FU when none available (Count)
system.cpu0.statFuBusy::SimdWholeRegisterStore            0      0.00%    100.00% # attempts to use FU when none available (Count)
system.cpu0.statFuBusy::SimdUnitStrideFaultOnlyFirstLoad            0      0.00%    100.00% # attempts to use FU when none available (Count)
system.cpu0.statFuBusy::SimdUnitStrideSegmentedLoad            0      0.00%    100.00% # attempts to use FU when none available (Count)
system.cpu0.statFuBusy::SimdUnitStrideSegmentedStore            0      0.00%    100.00% # attempts to use FU when none available (Count)
system.cpu0.statFuBusy::SimdExt                     0      0.00%    100.00% # attempts to use FU when none available (Count)
system.cpu0.statFuBusy::SimdFloatExt                0      0.00%    100.00% # attempts to use FU when none available (Count)
system.cpu0.statFuBusy::SimdConfig                  0      0.00%    100.00% # attempts to use FU when none available (Count)
system.cpu0.statIssuedInstType_0::No_OpClass       346711      0.00%      0.00% # Number of instructions issued per FU type, per thread (Count)
system.cpu0.statIssuedInstType_0::IntAlu  13297399015     59.33%     59.33% # Number of instructions issued per FU type, per thread (Count)
system.cpu0.statIssuedInstType_0::IntMult     94199901      0.42%     59.75% # Number of instructions issued per FU type, per thread (Count)
system.cpu0.statIssuedInstType_0::IntDiv         4412      0.00%     59.75% # Number of instructions issued per FU type, per thread (Count)
system.cpu0.statIssuedInstType_0::FloatAdd    360880195      1.61%     61.36% # Number of instructions issued per FU type, per thread (Count)
system.cpu0.statIssuedInstType_0::FloatCmp            0      0.00%     61.36% # Number of instructions issued per FU type, per thread (Count)
system.cpu0.statIssuedInstType_0::FloatCvt          668      0.00%     61.36% # Number of instructions issued per FU type, per thread (Count)
system.cpu0.statIssuedInstType_0::FloatMult            0      0.00%     61.36% # Number of instructions issued per FU type, per thread (Count)
system.cpu0.statIssuedInstType_0::FloatMultAcc            0      0.00%     61.36% # Number of instructions issued per FU type, per thread (Count)
system.cpu0.statIssuedInstType_0::FloatDiv            0      0.00%     61.36% # Number of instructions issued per FU type, per thread (Count)
system.cpu0.statIssuedInstType_0::FloatMisc            0      0.00%     61.36% # Number of instructions issued per FU type, per thread (Count)
system.cpu0.statIssuedInstType_0::FloatSqrt            0      0.00%     61.36% # Number of instructions issued per FU type, per thread (Count)
system.cpu0.statIssuedInstType_0::SimdAdd          788      0.00%     61.36% # Number of instructions issued per FU type, per thread (Count)
system.cpu0.statIssuedInstType_0::SimdAddAcc            0      0.00%     61.36% # Number of instructions issued per FU type, per thread (Count)
system.cpu0.statIssuedInstType_0::SimdAlu    122607327      0.55%     61.90% # Number of instructions issued per FU type, per thread (Count)
system.cpu0.statIssuedInstType_0::SimdCmp            0      0.00%     61.90% # Number of instructions issued per FU type, per thread (Count)
system.cpu0.statIssuedInstType_0::SimdCvt         7253      0.00%     61.91% # Number of instructions issued per FU type, per thread (Count)
system.cpu0.statIssuedInstType_0::SimdMisc    120541299      0.54%     62.44% # Number of instructions issued per FU type, per thread (Count)
system.cpu0.statIssuedInstType_0::SimdMult            0      0.00%     62.44% # Number of instructions issued per FU type, per thread (Count)
system.cpu0.statIssuedInstType_0::SimdMultAcc            0      0.00%     62.44% # Number of instructions issued per FU type, per thread (Count)
system.cpu0.statIssuedInstType_0::SimdMatMultAcc            0      0.00%     62.44% # Number of instructions issued per FU type, per thread (Count)
system.cpu0.statIssuedInstType_0::SimdShift            0      0.00%     62.44% # Number of instructions issued per FU type, per thread (Count)
system.cpu0.statIssuedInstType_0::SimdShiftAcc            0      0.00%     62.44% # Number of instructions issued per FU type, per thread (Count)
system.cpu0.statIssuedInstType_0::SimdDiv            0      0.00%     62.44% # Number of instructions issued per FU type, per thread (Count)
system.cpu0.statIssuedInstType_0::SimdSqrt            0      0.00%     62.44% # Number of instructions issued per FU type, per thread (Count)
system.cpu0.statIssuedInstType_0::SimdFloatAdd     61030228      0.27%     62.72% # Number of instructions issued per FU type, per thread (Count)
system.cpu0.statIssuedInstType_0::SimdFloatAlu            0      0.00%     62.72% # Number of instructions issued per FU type, per thread (Count)
system.cpu0.statIssuedInstType_0::SimdFloatCmp            0      0.00%     62.72% # Number of instructions issued per FU type, per thread (Count)
system.cpu0.statIssuedInstType_0::SimdFloatCvt    179172473      0.80%     63.51% # Number of instructions issued per FU type, per thread (Count)
system.cpu0.statIssuedInstType_0::SimdFloatDiv      2094232      0.01%     63.52% # Number of instructions issued per FU type, per thread (Count)
system.cpu0.statIssuedInstType_0::SimdFloatMisc            0      0.00%     63.52% # Number of instructions issued per FU type, per thread (Count)
system.cpu0.statIssuedInstType_0::SimdFloatMult     58964374      0.26%     63.79% # Number of instructions issued per FU type, per thread (Count)
system.cpu0.statIssuedInstType_0::SimdFloatMultAcc            0      0.00%     63.79% # Number of instructions issued per FU type, per thread (Count)
system.cpu0.statIssuedInstType_0::SimdFloatMatMultAcc            0      0.00%     63.79% # Number of instructions issued per FU type, per thread (Count)
system.cpu0.statIssuedInstType_0::SimdFloatSqrt          100      0.00%     63.79% # Number of instructions issued per FU type, per thread (Count)
system.cpu0.statIssuedInstType_0::SimdReduceAdd            0      0.00%     63.79% # Number of instructions issued per FU type, per thread (Count)
system.cpu0.statIssuedInstType_0::SimdReduceAlu            0      0.00%     63.79% # Number of instructions issued per FU type, per thread (Count)
system.cpu0.statIssuedInstType_0::SimdReduceCmp            0      0.00%     63.79% # Number of instructions issued per FU type, per thread (Count)
system.cpu0.statIssuedInstType_0::SimdFloatReduceAdd            0      0.00%     63.79% # Number of instructions issued per FU type, per thread (Count)
system.cpu0.statIssuedInstType_0::SimdFloatReduceCmp            0      0.00%     63.79% # Number of instructions issued per FU type, per thread (Count)
system.cpu0.statIssuedInstType_0::SimdAes            0      0.00%     63.79% # Number of instructions issued per FU type, per thread (Count)
system.cpu0.statIssuedInstType_0::SimdAesMix            0      0.00%     63.79% # Number of instructions issued per FU type, per thread (Count)
system.cpu0.statIssuedInstType_0::SimdSha1Hash            0      0.00%     63.79% # Number of instructions issued per FU type, per thread (Count)
system.cpu0.statIssuedInstType_0::SimdSha1Hash2            0      0.00%     63.79% # Number of instructions issued per FU type, per thread (Count)
system.cpu0.statIssuedInstType_0::SimdSha256Hash            0      0.00%     63.79% # Number of instructions issued per FU type, per thread (Count)
system.cpu0.statIssuedInstType_0::SimdSha256Hash2            0      0.00%     63.79% # Number of instructions issued per FU type, per thread (Count)
system.cpu0.statIssuedInstType_0::SimdShaSigma2            0      0.00%     63.79% # Number of instructions issued per FU type, per thread (Count)
system.cpu0.statIssuedInstType_0::SimdShaSigma3            0      0.00%     63.79% # Number of instructions issued per FU type, per thread (Count)
system.cpu0.statIssuedInstType_0::SimdPredAlu            0      0.00%     63.79% # Number of instructions issued per FU type, per thread (Count)
system.cpu0.statIssuedInstType_0::Matrix            0      0.00%     63.79% # Number of instructions issued per FU type, per thread (Count)
system.cpu0.statIssuedInstType_0::MatrixMov            0      0.00%     63.79% # Number of instructions issued per FU type, per thread (Count)
system.cpu0.statIssuedInstType_0::MatrixOP            0      0.00%     63.79% # Number of instructions issued per FU type, per thread (Count)
system.cpu0.statIssuedInstType_0::MemRead   4671552338     20.84%     84.63% # Number of instructions issued per FU type, per thread (Count)
system.cpu0.statIssuedInstType_0::MemWrite   2902014866     12.95%     97.58% # Number of instructions issued per FU type, per thread (Count)
system.cpu0.statIssuedInstType_0::FloatMemRead    420277967      1.88%     99.45% # Number of instructions issued per FU type, per thread (Count)
system.cpu0.statIssuedInstType_0::FloatMemWrite    122993543      0.55%    100.00% # Number of instructions issued per FU type, per thread (Count)
system.cpu0.statIssuedInstType_0::IprAccess            0      0.00%    100.00% # Number of instructions issued per FU type, per thread (Count)
system.cpu0.statIssuedInstType_0::InstPrefetch            0      0.00%    100.00% # Number of instructions issued per FU type, per thread (Count)
system.cpu0.statIssuedInstType_0::SimdUnitStrideLoad            0      0.00%    100.00% # Number of instructions issued per FU type, per thread (Count)
system.cpu0.statIssuedInstType_0::SimdUnitStrideStore            0      0.00%    100.00% # Number of instructions issued per FU type, per thread (Count)
system.cpu0.statIssuedInstType_0::SimdUnitStrideMaskLoad            0      0.00%    100.00% # Number of instructions issued per FU type, per thread (Count)
system.cpu0.statIssuedInstType_0::SimdUnitStrideMaskStore            0      0.00%    100.00% # Number of instructions issued per FU type, per thread (Count)
system.cpu0.statIssuedInstType_0::SimdStridedLoad            0      0.00%    100.00% # Number of instructions issued per FU type, per thread (Count)
system.cpu0.statIssuedInstType_0::SimdStridedStore            0      0.00%    100.00% # Number of instructions issued per FU type, per thread (Count)
system.cpu0.statIssuedInstType_0::SimdIndexedLoad            0      0.00%    100.00% # Number of instructions issued per FU type, per thread (Count)
system.cpu0.statIssuedInstType_0::SimdIndexedStore            0      0.00%    100.00% # Number of instructions issued per FU type, per thread (Count)
system.cpu0.statIssuedInstType_0::SimdWholeRegisterLoad            0      0.00%    100.00% # Number of instructions issued per FU type, per thread (Count)
system.cpu0.statIssuedInstType_0::SimdWholeRegisterStore            0      0.00%    100.00% # Number of instructions issued per FU type, per thread (Count)
system.cpu0.statIssuedInstType_0::SimdUnitStrideFaultOnlyFirstLoad            0      0.00%    100.00% # Number of instructions issued per FU type, per thread (Count)
system.cpu0.statIssuedInstType_0::SimdUnitStrideSegmentedLoad            0      0.00%    100.00% # Number of instructions issued per FU type, per thread (Count)
system.cpu0.statIssuedInstType_0::SimdUnitStrideSegmentedStore            0      0.00%    100.00% # Number of instructions issued per FU type, per thread (Count)
system.cpu0.statIssuedInstType_0::SimdExt            0      0.00%    100.00% # Number of instructions issued per FU type, per thread (Count)
system.cpu0.statIssuedInstType_0::SimdFloatExt            0      0.00%    100.00% # Number of instructions issued per FU type, per thread (Count)
system.cpu0.statIssuedInstType_0::SimdConfig            0      0.00%    100.00% # Number of instructions issued per FU type, per thread (Count)
system.cpu0.statIssuedInstType_0::total   22414087690                       # Number of instructions issued per FU type, per thread (Count)
system.cpu0.issueRate                        0.923455                       # Inst issue rate ((Count/Cycle))
system.cpu0.fuBusy                          124053554                       # FU busy when requested (Count)
system.cpu0.fuBusyRate                       0.005535                       # FU busy rate (busy events/executed inst) ((Count/Count))
system.cpu0.intInstQueueReads             66306460023                       # Number of integer instruction queue reads (Count)
system.cpu0.intInstQueueWrites            21027354247                       # Number of integer instruction queue writes (Count)
system.cpu0.intInstQueueWakeupAccesses    20962894709                       # Number of integer instruction queue wakeup accesses (Count)
system.cpu0.fpInstQueueReads               2897323553                       # Number of floating instruction queue reads (Count)
system.cpu0.fpInstQueueWrites              1451754353                       # Number of floating instruction queue writes (Count)
system.cpu0.fpInstQueueWakeupAccesses      1448505748                       # Number of floating instruction queue wakeup accesses (Count)
system.cpu0.vecInstQueueReads                       0                       # Number of vector instruction queue reads (Count)
system.cpu0.vecInstQueueWrites                      0                       # Number of vector instruction queue writes (Count)
system.cpu0.vecInstQueueWakeupAccesses              0                       # Number of vector instruction queue wakeup accesses (Count)
system.cpu0.intAluAccesses                21089114576                       # Number of integer alu accesses (Count)
system.cpu0.fpAluAccesses                  1448679957                       # Number of floating point alu accesses (Count)
system.cpu0.vecAluAccesses                          0                       # Number of vector alu accesses (Count)
system.cpu0.numSquashedInsts                  1953129                       # Number of squashed instructions skipped in execute (Count)
system.cpu0.numSwp                                  0                       # Number of swp insts executed (Count)
system.cpu0.timesIdled                          33477                       # Number of times that the entire CPU went into an idle state and unscheduled itself (Count)
system.cpu0.idleCycles                       20470973                       # Total number of cycles that the CPU has spent unscheduled due to idling (Cycle)
system.cpu0.MemDepUnit__0.insertedLoads    5095801368                       # Number of loads inserted to the mem dependence unit. (Count)
system.cpu0.MemDepUnit__0.insertedStores   3026984116                       # Number of stores inserted to the mem dependence unit. (Count)
system.cpu0.MemDepUnit__0.conflictingLoads   2533201500                       # Number of conflicting loads. (Count)
system.cpu0.MemDepUnit__0.conflictingStores    874294742                       # Number of conflicting stores. (Count)
system.cpu0.MemDepUnit__1.insertedLoads             0                       # Number of loads inserted to the mem dependence unit. (Count)
system.cpu0.MemDepUnit__1.insertedStores            0                       # Number of stores inserted to the mem dependence unit. (Count)
system.cpu0.MemDepUnit__1.conflictingLoads            0                       # Number of conflicting loads. (Count)
system.cpu0.MemDepUnit__1.conflictingStores            0                       # Number of conflicting stores. (Count)
system.cpu0.MemDepUnit__2.insertedLoads             0                       # Number of loads inserted to the mem dependence unit. (Count)
system.cpu0.MemDepUnit__2.insertedStores            0                       # Number of stores inserted to the mem dependence unit. (Count)
system.cpu0.MemDepUnit__2.conflictingLoads            0                       # Number of conflicting loads. (Count)
system.cpu0.MemDepUnit__2.conflictingStores            0                       # Number of conflicting stores. (Count)
system.cpu0.MemDepUnit__3.insertedLoads             0                       # Number of loads inserted to the mem dependence unit. (Count)
system.cpu0.MemDepUnit__3.insertedStores            0                       # Number of stores inserted to the mem dependence unit. (Count)
system.cpu0.MemDepUnit__3.conflictingLoads            0                       # Number of conflicting loads. (Count)
system.cpu0.MemDepUnit__3.conflictingStores            0                       # Number of conflicting stores. (Count)
system.cpu0.branchPred.lookups_0::NoBranch            1      0.00%      0.00% # Number of BP lookups (Count)
system.cpu0.branchPred.lookups_0::Return    678061509     40.81%     40.81% # Number of BP lookups (Count)
system.cpu0.branchPred.lookups_0::CallDirect    677875122     40.80%     81.62% # Number of BP lookups (Count)
system.cpu0.branchPred.lookups_0::CallIndirect         4633      0.00%     81.62% # Number of BP lookups (Count)
system.cpu0.branchPred.lookups_0::DirectCond    299217708     18.01%     99.63% # Number of BP lookups (Count)
system.cpu0.branchPred.lookups_0::DirectUncond      3678773      0.22%     99.85% # Number of BP lookups (Count)
system.cpu0.branchPred.lookups_0::IndirectCond            0      0.00%     99.85% # Number of BP lookups (Count)
system.cpu0.branchPred.lookups_0::IndirectUncond      2479913      0.15%    100.00% # Number of BP lookups (Count)
system.cpu0.branchPred.lookups_0::total    1661317659                       # Number of BP lookups (Count)
system.cpu0.branchPred.squashes_0::NoBranch            1      0.00%      0.00% # Number of branches that got squashed (completely removed) as an earlier branch was mispredicted. (Count)
system.cpu0.branchPred.squashes_0::Return      2172597     39.87%     39.87% # Number of branches that got squashed (completely removed) as an earlier branch was mispredicted. (Count)
system.cpu0.branchPred.squashes_0::CallDirect      1989665     36.52%     76.39% # Number of branches that got squashed (completely removed) as an earlier branch was mispredicted. (Count)
system.cpu0.branchPred.squashes_0::CallIndirect         1174      0.02%     76.41% # Number of branches that got squashed (completely removed) as an earlier branch was mispredicted. (Count)
system.cpu0.branchPred.squashes_0::DirectCond      1116035     20.48%     96.89% # Number of branches that got squashed (completely removed) as an earlier branch was mispredicted. (Count)
system.cpu0.branchPred.squashes_0::DirectUncond       159414      2.93%     99.82% # Number of branches that got squashed (completely removed) as an earlier branch was mispredicted. (Count)
system.cpu0.branchPred.squashes_0::IndirectCond            0      0.00%     99.82% # Number of branches that got squashed (completely removed) as an earlier branch was mispredicted. (Count)
system.cpu0.branchPred.squashes_0::IndirectUncond         9927      0.18%    100.00% # Number of branches that got squashed (completely removed) as an earlier branch was mispredicted. (Count)
system.cpu0.branchPred.squashes_0::total      5448813                       # Number of branches that got squashed (completely removed) as an earlier branch was mispredicted. (Count)
system.cpu0.branchPred.corrected_0::NoBranch            0      0.00%      0.00% # Number of branches that got corrected but not yet commited. Branches get corrected by decode or after execute. Also a branch misprediction can be detected out-of-order. Therefore, a corrected branch might not end up beeing committed in case an even earlier branch was mispredicted (Count)
system.cpu0.branchPred.corrected_0::Return          759      0.15%      0.15% # Number of branches that got corrected but not yet commited. Branches get corrected by decode or after execute. Also a branch misprediction can be detected out-of-order. Therefore, a corrected branch might not end up beeing committed in case an even earlier branch was mispredicted (Count)
system.cpu0.branchPred.corrected_0::CallDirect        12266      2.45%      2.60% # Number of branches that got corrected but not yet commited. Branches get corrected by decode or after execute. Also a branch misprediction can be detected out-of-order. Therefore, a corrected branch might not end up beeing committed in case an even earlier branch was mispredicted (Count)
system.cpu0.branchPred.corrected_0::CallIndirect          189      0.04%      2.63% # Number of branches that got corrected but not yet commited. Branches get corrected by decode or after execute. Also a branch misprediction can be detected out-of-order. Therefore, a corrected branch might not end up beeing committed in case an even earlier branch was mispredicted (Count)
system.cpu0.branchPred.corrected_0::DirectCond       484538     96.60%     99.24% # Number of branches that got corrected but not yet commited. Branches get corrected by decode or after execute. Also a branch misprediction can be detected out-of-order. Therefore, a corrected branch might not end up beeing committed in case an even earlier branch was mispredicted (Count)
system.cpu0.branchPred.corrected_0::DirectUncond         3375      0.67%     99.91% # Number of branches that got corrected but not yet commited. Branches get corrected by decode or after execute. Also a branch misprediction can be detected out-of-order. Therefore, a corrected branch might not end up beeing committed in case an even earlier branch was mispredicted (Count)
system.cpu0.branchPred.corrected_0::IndirectCond            0      0.00%     99.91% # Number of branches that got corrected but not yet commited. Branches get corrected by decode or after execute. Also a branch misprediction can be detected out-of-order. Therefore, a corrected branch might not end up beeing committed in case an even earlier branch was mispredicted (Count)
system.cpu0.branchPred.corrected_0::IndirectUncond          458      0.09%    100.00% # Number of branches that got corrected but not yet commited. Branches get corrected by decode or after execute. Also a branch misprediction can be detected out-of-order. Therefore, a corrected branch might not end up beeing committed in case an even earlier branch was mispredicted (Count)
system.cpu0.branchPred.corrected_0::total       501585                       # Number of branches that got corrected but not yet commited. Branches get corrected by decode or after execute. Also a branch misprediction can be detected out-of-order. Therefore, a corrected branch might not end up beeing committed in case an even earlier branch was mispredicted (Count)
system.cpu0.branchPred.earlyResteers_0::NoBranch            0                       # Number of branches that got redirected after decode. (Count)
system.cpu0.branchPred.earlyResteers_0::Return            0                       # Number of branches that got redirected after decode. (Count)
system.cpu0.branchPred.earlyResteers_0::CallDirect            0                       # Number of branches that got redirected after decode. (Count)
system.cpu0.branchPred.earlyResteers_0::CallIndirect            0                       # Number of branches that got redirected after decode. (Count)
system.cpu0.branchPred.earlyResteers_0::DirectCond            0                       # Number of branches that got redirected after decode. (Count)
system.cpu0.branchPred.earlyResteers_0::DirectUncond            0                       # Number of branches that got redirected after decode. (Count)
system.cpu0.branchPred.earlyResteers_0::IndirectCond            0                       # Number of branches that got redirected after decode. (Count)
system.cpu0.branchPred.earlyResteers_0::IndirectUncond            0                       # Number of branches that got redirected after decode. (Count)
system.cpu0.branchPred.earlyResteers_0::total            0                       # Number of branches that got redirected after decode. (Count)
system.cpu0.branchPred.committed_0::NoBranch            0      0.00%      0.00% # Number of branches finally committed  (Count)
system.cpu0.branchPred.committed_0::Return    675888912     40.82%     40.82% # Number of branches finally committed  (Count)
system.cpu0.branchPred.committed_0::CallDirect    675885457     40.82%     81.64% # Number of branches finally committed  (Count)
system.cpu0.branchPred.committed_0::CallIndirect         3459      0.00%     81.64% # Number of branches finally committed  (Count)
system.cpu0.branchPred.committed_0::DirectCond    298101672     18.00%     99.64% # Number of branches finally committed  (Count)
system.cpu0.branchPred.committed_0::DirectUncond      3519359      0.21%     99.85% # Number of branches finally committed  (Count)
system.cpu0.branchPred.committed_0::IndirectCond            0      0.00%     99.85% # Number of branches finally committed  (Count)
system.cpu0.branchPred.committed_0::IndirectUncond      2469986      0.15%    100.00% # Number of branches finally committed  (Count)
system.cpu0.branchPred.committed_0::total   1655868845                       # Number of branches finally committed  (Count)
system.cpu0.branchPred.mispredicted_0::NoBranch            0      0.00%      0.00% # Number of committed branches that were mispredicted. (Count)
system.cpu0.branchPred.mispredicted_0::Return          594      0.12%      0.12% # Number of committed branches that were mispredicted. (Count)
system.cpu0.branchPred.mispredicted_0::CallDirect        10986      2.25%      2.37% # Number of committed branches that were mispredicted. (Count)
system.cpu0.branchPred.mispredicted_0::CallIndirect          175      0.04%      2.41% # Number of committed branches that were mispredicted. (Count)
system.cpu0.branchPred.mispredicted_0::DirectCond       474154     97.07%     99.47% # Number of committed branches that were mispredicted. (Count)
system.cpu0.branchPred.mispredicted_0::DirectUncond         2153      0.44%     99.92% # Number of committed branches that were mispredicted. (Count)
system.cpu0.branchPred.mispredicted_0::IndirectCond            0      0.00%     99.92% # Number of committed branches that were mispredicted. (Count)
system.cpu0.branchPred.mispredicted_0::IndirectUncond          412      0.08%    100.00% # Number of committed branches that were mispredicted. (Count)
system.cpu0.branchPred.mispredicted_0::total       488474                       # Number of committed branches that were mispredicted. (Count)
system.cpu0.branchPred.targetProvider_0::NoTarget     21173865      1.27%      1.27% # The component providing the target for taken branches (Count)
system.cpu0.branchPred.targetProvider_0::BTB    959601375     57.76%     59.04% # The component providing the target for taken branches (Count)
system.cpu0.branchPred.targetProvider_0::RAS    678061504     40.81%     99.85% # The component providing the target for taken branches (Count)
system.cpu0.branchPred.targetProvider_0::Indirect      2480915      0.15%    100.00% # The component providing the target for taken branches (Count)
system.cpu0.branchPred.targetProvider_0::total   1661317659                       # The component providing the target for taken branches (Count)
system.cpu0.branchPred.targetWrong_0::NoBranch       134239     26.80%     26.80% # Number of branches where the target was incorrect or not available at prediction time. (Count)
system.cpu0.branchPred.targetWrong_0::Return       365885     73.04%     99.84% # Number of branches where the target was incorrect or not available at prediction time. (Count)
system.cpu0.branchPred.targetWrong_0::CallDirect          759      0.15%     99.99% # Number of branches where the target was incorrect or not available at prediction time. (Count)
system.cpu0.branchPred.targetWrong_0::CallIndirect           46      0.01%    100.00% # Number of branches where the target was incorrect or not available at prediction time. (Count)
system.cpu0.branchPred.targetWrong_0::DirectCond            0      0.00%    100.00% # Number of branches where the target was incorrect or not available at prediction time. (Count)
system.cpu0.branchPred.targetWrong_0::DirectUncond            0      0.00%    100.00% # Number of branches where the target was incorrect or not available at prediction time. (Count)
system.cpu0.branchPred.targetWrong_0::IndirectCond            0      0.00%    100.00% # Number of branches where the target was incorrect or not available at prediction time. (Count)
system.cpu0.branchPred.targetWrong_0::IndirectUncond            0      0.00%    100.00% # Number of branches where the target was incorrect or not available at prediction time. (Count)
system.cpu0.branchPred.targetWrong_0::total       500929                       # Number of branches where the target was incorrect or not available at prediction time. (Count)
system.cpu0.branchPred.condPredicted        299217709                       # Number of conditional branches predicted (Count)
system.cpu0.branchPred.condPredictedTaken    278081175                       # Number of conditional branches predicted as taken (Count)
system.cpu0.branchPred.condIncorrect           501585                       # Number of conditional branches incorrect (Count)
system.cpu0.branchPred.predTakenBTBMiss         24818                       # Number of branches predicted taken but missed in BTB (Count)
system.cpu0.branchPred.NotTakenMispredicted       136879                       # Number branches predicted 'not taken' but turned out to be taken (Count)
system.cpu0.branchPred.TakenMispredicted       364706                       # Number branches predicted taken but are actually not taken (Count)
system.cpu0.branchPred.BTBLookups          1661317659                       # Number of BTB lookups (Count)
system.cpu0.branchPred.BTBUpdates              135473                       # Number of BTB updates (Count)
system.cpu0.branchPred.BTBHits              967645564                       # Number of BTB hits (Count)
system.cpu0.branchPred.BTBHitRatio           0.582457                       # BTB Hit Ratio (Ratio)
system.cpu0.branchPred.BTBMispredicted          26116                       # Number BTB mispredictions. No target found or target wrong (Count)
system.cpu0.branchPred.indirectLookups        2484546                       # Number of indirect predictor lookups. (Count)
system.cpu0.branchPred.indirectHits           2480915                       # Number of indirect target hits. (Count)
system.cpu0.branchPred.indirectMisses            3631                       # Number of indirect misses. (Count)
system.cpu0.branchPred.indirectMispredicted            0                       # Number of mispredicted indirect branches. (Count)
system.cpu0.branchPred.btb.lookups::NoBranch            1      0.00%      0.00% # Number of BTB lookups (Count)
system.cpu0.branchPred.btb.lookups::Return    678061509     40.81%     40.81% # Number of BTB lookups (Count)
system.cpu0.branchPred.btb.lookups::CallDirect    677875122     40.80%     81.62% # Number of BTB lookups (Count)
system.cpu0.branchPred.btb.lookups::CallIndirect         4633      0.00%     81.62% # Number of BTB lookups (Count)
system.cpu0.branchPred.btb.lookups::DirectCond    299217708     18.01%     99.63% # Number of BTB lookups (Count)
system.cpu0.branchPred.btb.lookups::DirectUncond      3678773      0.22%     99.85% # Number of BTB lookups (Count)
system.cpu0.branchPred.btb.lookups::IndirectCond            0      0.00%     99.85% # Number of BTB lookups (Count)
system.cpu0.branchPred.btb.lookups::IndirectUncond      2479913      0.15%    100.00% # Number of BTB lookups (Count)
system.cpu0.branchPred.btb.lookups::total   1661317659                       # Number of BTB lookups (Count)
system.cpu0.branchPred.btb.misses::NoBranch            1      0.00%      0.00% # Number of BTB misses (Count)
system.cpu0.branchPred.btb.misses::Return    678050459     97.75%     97.75% # Number of BTB misses (Count)
system.cpu0.branchPred.btb.misses::CallDirect        13069      0.00%     97.75% # Number of BTB misses (Count)
system.cpu0.branchPred.btb.misses::CallIndirect         4498      0.00%     97.75% # Number of BTB misses (Count)
system.cpu0.branchPred.btb.misses::DirectCond     13120884      1.89%     99.64% # Number of BTB misses (Count)
system.cpu0.branchPred.btb.misses::DirectUncond         3271      0.00%     99.64% # Number of BTB misses (Count)
system.cpu0.branchPred.btb.misses::IndirectCond            0      0.00%     99.64% # Number of BTB misses (Count)
system.cpu0.branchPred.btb.misses::IndirectUncond      2479913      0.36%    100.00% # Number of BTB misses (Count)
system.cpu0.branchPred.btb.misses::total    693672095                       # Number of BTB misses (Count)
system.cpu0.branchPred.btb.updates::NoBranch            0      0.00%      0.00% # Number of BTB updates (Count)
system.cpu0.branchPred.btb.updates::Return            0      0.00%      0.00% # Number of BTB updates (Count)
system.cpu0.branchPred.btb.updates::CallDirect        12266      9.05%      9.05% # Number of BTB updates (Count)
system.cpu0.branchPred.btb.updates::CallIndirect            0      0.00%      9.05% # Number of BTB updates (Count)
system.cpu0.branchPred.btb.updates::DirectCond       119832     88.45%     97.51% # Number of BTB updates (Count)
system.cpu0.branchPred.btb.updates::DirectUncond         3375      2.49%    100.00% # Number of BTB updates (Count)
system.cpu0.branchPred.btb.updates::IndirectCond            0      0.00%    100.00% # Number of BTB updates (Count)
system.cpu0.branchPred.btb.updates::IndirectUncond            0      0.00%    100.00% # Number of BTB updates (Count)
system.cpu0.branchPred.btb.updates::total       135473                       # Number of BTB updates (Count)
system.cpu0.branchPred.btb.mispredict::NoBranch            0      0.00%      0.00% # Number of BTB mispredictions. No target found or target wrong. (Count)
system.cpu0.branchPred.btb.mispredict::Return            0      0.00%      0.00% # Number of BTB mispredictions. No target found or target wrong. (Count)
system.cpu0.branchPred.btb.mispredict::CallDirect        12266      9.05%      9.05% # Number of BTB mispredictions. No target found or target wrong. (Count)
system.cpu0.branchPred.btb.mispredict::CallIndirect            0      0.00%      9.05% # Number of BTB mispredictions. No target found or target wrong. (Count)
system.cpu0.branchPred.btb.mispredict::DirectCond       119832     88.45%     97.51% # Number of BTB mispredictions. No target found or target wrong. (Count)
system.cpu0.branchPred.btb.mispredict::DirectUncond         3375      2.49%    100.00% # Number of BTB mispredictions. No target found or target wrong. (Count)
system.cpu0.branchPred.btb.mispredict::IndirectCond            0      0.00%    100.00% # Number of BTB mispredictions. No target found or target wrong. (Count)
system.cpu0.branchPred.btb.mispredict::IndirectUncond            0      0.00%    100.00% # Number of BTB mispredictions. No target found or target wrong. (Count)
system.cpu0.branchPred.btb.mispredict::total       135473                       # Number of BTB mispredictions. No target found or target wrong. (Count)
system.cpu0.branchPred.btb.power_state.pwrStateResidencyTicks::UNDEFINED 7597135078528                       # Cumulative time (in ticks) in various power states (Tick)
system.cpu0.branchPred.indirectBranchPred.lookups      2484546                       # Number of lookups (Count)
system.cpu0.branchPred.indirectBranchPred.hits      2480915                       # Number of hits of a tag (Count)
system.cpu0.branchPred.indirectBranchPred.misses         3631                       # Number of misses (Count)
system.cpu0.branchPred.indirectBranchPred.targetRecords          647                       # Number of targets that where recorded/installed in the cache (Count)
system.cpu0.branchPred.indirectBranchPred.indirectRecords      2485193                       # Number of indirect branches/calls recorded in the indirect hist (Count)
system.cpu0.branchPred.indirectBranchPred.speculativeOverflows            0                       # Number of times more than the allowed capacity for speculative branches/calls where in flight and destroy the path history (Count)
system.cpu0.branchPred.ras.pushes           680052352                       # Number of times a PC was pushed onto the RAS (Count)
system.cpu0.branchPred.ras.pops             680052348                       # Number of times a PC was poped from the RAS (Count)
system.cpu0.branchPred.ras.squashes           4163436                       # Number of times the stack operation was squashed due to wrong speculation. (Count)
system.cpu0.branchPred.ras.used             675888912                       # Number of times the RAS is the provider (Count)
system.cpu0.branchPred.ras.correct          675888318                       # Number of times the RAS is the provider and the prediction is correct (Count)
system.cpu0.branchPred.ras.incorrect              594                       # Number of times the RAS is the provider and the prediction is wrong (Count)
system.cpu0.commit.commitSquashedInsts       49362045                       # The number of squashed insts skipped by commit (Count)
system.cpu0.commit.commitNonSpecStalls           3987                       # The number of times commit has been forced to stall to communicate backwards (Count)
system.cpu0.commit.branchMispredicts           487546                       # The number of times a branch was mispredicted (Count)
system.cpu0.commit.numCommittedDist::samples  24244782218                       # Number of insts commited each cycle (Count)
system.cpu0.commit.numCommittedDist::mean     0.923073                       # Number of insts commited each cycle (Count)
system.cpu0.commit.numCommittedDist::stdev     2.223428                       # Number of insts commited each cycle (Count)
system.cpu0.commit.numCommittedDist::underflows            0      0.00%      0.00% # Number of insts commited each cycle (Count)
system.cpu0.commit.numCommittedDist::0    18781067591     77.46%     77.46% # Number of insts commited each cycle (Count)
system.cpu0.commit.numCommittedDist::1     1899381446      7.83%     85.30% # Number of insts commited each cycle (Count)
system.cpu0.commit.numCommittedDist::2      502492753      2.07%     87.37% # Number of insts commited each cycle (Count)
system.cpu0.commit.numCommittedDist::3      655788254      2.70%     90.08% # Number of insts commited each cycle (Count)
system.cpu0.commit.numCommittedDist::4       79202912      0.33%     90.40% # Number of insts commited each cycle (Count)
system.cpu0.commit.numCommittedDist::5      252050831      1.04%     91.44% # Number of insts commited each cycle (Count)
system.cpu0.commit.numCommittedDist::6      180286863      0.74%     92.19% # Number of insts commited each cycle (Count)
system.cpu0.commit.numCommittedDist::7      306908197      1.27%     93.45% # Number of insts commited each cycle (Count)
system.cpu0.commit.numCommittedDist::8     1587603371      6.55%    100.00% # Number of insts commited each cycle (Count)
system.cpu0.commit.numCommittedDist::overflows            0      0.00%    100.00% # Number of insts commited each cycle (Count)
system.cpu0.commit.numCommittedDist::min_value            0                       # Number of insts commited each cycle (Count)
system.cpu0.commit.numCommittedDist::max_value            8                       # Number of insts commited each cycle (Count)
system.cpu0.commit.numCommittedDist::total  24244782218                       # Number of insts commited each cycle (Count)
system.cpu0.commit.amos                             0                       # Number of atomic instructions committed (Count)
system.cpu0.commit.membars                       2490                       # Number of memory barriers committed (Count)
system.cpu0.commit.functionCalls            675888916                       # Number of function calls committed. (Count)
system.cpu0.commit.committedInstType_0::No_OpClass       340875      0.00%      0.00% # Class of committed instruction (Count)
system.cpu0.commit.committedInstType_0::IntAlu  13275187152     59.32%     59.32% # Class of committed instruction (Count)
system.cpu0.commit.committedInstType_0::IntMult     94190855      0.42%     59.74% # Class of committed instruction (Count)
system.cpu0.commit.committedInstType_0::IntDiv         3739      0.00%     59.74% # Class of committed instruction (Count)
system.cpu0.commit.committedInstType_0::FloatAdd    360353406      1.61%     61.35% # Class of committed instruction (Count)
system.cpu0.commit.committedInstType_0::FloatCmp            0      0.00%     61.35% # Class of committed instruction (Count)
system.cpu0.commit.committedInstType_0::FloatCvt          448      0.00%     61.35% # Class of committed instruction (Count)
system.cpu0.commit.committedInstType_0::FloatMult            0      0.00%     61.35% # Class of committed instruction (Count)
system.cpu0.commit.committedInstType_0::FloatMultAcc            0      0.00%     61.35% # Class of committed instruction (Count)
system.cpu0.commit.committedInstType_0::FloatDiv            0      0.00%     61.35% # Class of committed instruction (Count)
system.cpu0.commit.committedInstType_0::FloatMisc            0      0.00%     61.35% # Class of committed instruction (Count)
system.cpu0.commit.committedInstType_0::FloatSqrt            0      0.00%     61.35% # Class of committed instruction (Count)
system.cpu0.commit.committedInstType_0::SimdAdd          788      0.00%     61.35% # Class of committed instruction (Count)
system.cpu0.commit.committedInstType_0::SimdAddAcc            0      0.00%     61.35% # Class of committed instruction (Count)
system.cpu0.commit.committedInstType_0::SimdAlu    122458758      0.55%     61.90% # Class of committed instruction (Count)
system.cpu0.commit.committedInstType_0::SimdCmp            0      0.00%     61.90% # Class of committed instruction (Count)
system.cpu0.commit.committedInstType_0::SimdCvt         7178      0.00%     61.90% # Class of committed instruction (Count)
system.cpu0.commit.committedInstType_0::SimdMisc    120417713      0.54%     62.44% # Class of committed instruction (Count)
system.cpu0.commit.committedInstType_0::SimdMult            0      0.00%     62.44% # Class of committed instruction (Count)
system.cpu0.commit.committedInstType_0::SimdMultAcc            0      0.00%     62.44% # Class of committed instruction (Count)
system.cpu0.commit.committedInstType_0::SimdMatMultAcc            0      0.00%     62.44% # Class of committed instruction (Count)
system.cpu0.commit.committedInstType_0::SimdShift            0      0.00%     62.44% # Class of committed instruction (Count)
system.cpu0.commit.committedInstType_0::SimdShiftAcc            0      0.00%     62.44% # Class of committed instruction (Count)
system.cpu0.commit.committedInstType_0::SimdDiv            0      0.00%     62.44% # Class of committed instruction (Count)
system.cpu0.commit.committedInstType_0::SimdSqrt            0      0.00%     62.44% # Class of committed instruction (Count)
system.cpu0.commit.committedInstType_0::SimdFloatAdd     61022678      0.27%     62.71% # Class of committed instruction (Count)
system.cpu0.commit.committedInstType_0::SimdFloatAlu            0      0.00%     62.71% # Class of committed instruction (Count)
system.cpu0.commit.committedInstType_0::SimdFloatCmp            0      0.00%     62.71% # Class of committed instruction (Count)
system.cpu0.commit.committedInstType_0::SimdFloatCvt    178952726      0.80%     63.51% # Class of committed instruction (Count)
system.cpu0.commit.committedInstType_0::SimdFloatDiv      2086276      0.01%     63.52% # Class of committed instruction (Count)
system.cpu0.commit.committedInstType_0::SimdFloatMisc            0      0.00%     63.52% # Class of committed instruction (Count)
system.cpu0.commit.committedInstType_0::SimdFloatMult     58957156      0.26%     63.78% # Class of committed instruction (Count)
system.cpu0.commit.committedInstType_0::SimdFloatMultAcc            0      0.00%     63.78% # Class of committed instruction (Count)
system.cpu0.commit.committedInstType_0::SimdFloatMatMultAcc            0      0.00%     63.78% # Class of committed instruction (Count)
system.cpu0.commit.committedInstType_0::SimdFloatSqrt          100      0.00%     63.78% # Class of committed instruction (Count)
system.cpu0.commit.committedInstType_0::SimdReduceAdd            0      0.00%     63.78% # Class of committed instruction (Count)
system.cpu0.commit.committedInstType_0::SimdReduceAlu            0      0.00%     63.78% # Class of committed instruction (Count)
system.cpu0.commit.committedInstType_0::SimdReduceCmp            0      0.00%     63.78% # Class of committed instruction (Count)
system.cpu0.commit.committedInstType_0::SimdFloatReduceAdd            0      0.00%     63.78% # Class of committed instruction (Count)
system.cpu0.commit.committedInstType_0::SimdFloatReduceCmp            0      0.00%     63.78% # Class of committed instruction (Count)
system.cpu0.commit.committedInstType_0::SimdAes            0      0.00%     63.78% # Class of committed instruction (Count)
system.cpu0.commit.committedInstType_0::SimdAesMix            0      0.00%     63.78% # Class of committed instruction (Count)
system.cpu0.commit.committedInstType_0::SimdSha1Hash            0      0.00%     63.78% # Class of committed instruction (Count)
system.cpu0.commit.committedInstType_0::SimdSha1Hash2            0      0.00%     63.78% # Class of committed instruction (Count)
system.cpu0.commit.committedInstType_0::SimdSha256Hash            0      0.00%     63.78% # Class of committed instruction (Count)
system.cpu0.commit.committedInstType_0::SimdSha256Hash2            0      0.00%     63.78% # Class of committed instruction (Count)
system.cpu0.commit.committedInstType_0::SimdShaSigma2            0      0.00%     63.78% # Class of committed instruction (Count)
system.cpu0.commit.committedInstType_0::SimdShaSigma3            0      0.00%     63.78% # Class of committed instruction (Count)
system.cpu0.commit.committedInstType_0::SimdPredAlu            0      0.00%     63.78% # Class of committed instruction (Count)
system.cpu0.commit.committedInstType_0::Matrix            0      0.00%     63.78% # Class of committed instruction (Count)
system.cpu0.commit.committedInstType_0::MatrixMov            0      0.00%     63.78% # Class of committed instruction (Count)
system.cpu0.commit.committedInstType_0::MatrixOP            0      0.00%     63.78% # Class of committed instruction (Count)
system.cpu0.commit.committedInstType_0::MemRead   4664947124     20.84%     84.63% # Class of committed instruction (Count)
system.cpu0.commit.committedInstType_0::MemWrite   2898188947     12.95%     97.58% # Class of committed instruction (Count)
system.cpu0.commit.committedInstType_0::FloatMemRead    419666535      1.88%     99.45% # Class of committed instruction (Count)
system.cpu0.commit.committedInstType_0::FloatMemWrite    122920588      0.55%    100.00% # Class of committed instruction (Count)
system.cpu0.commit.committedInstType_0::IprAccess            0      0.00%    100.00% # Class of committed instruction (Count)
system.cpu0.commit.committedInstType_0::InstPrefetch            0      0.00%    100.00% # Class of committed instruction (Count)
system.cpu0.commit.committedInstType_0::SimdUnitStrideLoad            0      0.00%    100.00% # Class of committed instruction (Count)
system.cpu0.commit.committedInstType_0::SimdUnitStrideStore            0      0.00%    100.00% # Class of committed instruction (Count)
system.cpu0.commit.committedInstType_0::SimdUnitStrideMaskLoad            0      0.00%    100.00% # Class of committed instruction (Count)
system.cpu0.commit.committedInstType_0::SimdUnitStrideMaskStore            0      0.00%    100.00% # Class of committed instruction (Count)
system.cpu0.commit.committedInstType_0::SimdStridedLoad            0      0.00%    100.00% # Class of committed instruction (Count)
system.cpu0.commit.committedInstType_0::SimdStridedStore            0      0.00%    100.00% # Class of committed instruction (Count)
system.cpu0.commit.committedInstType_0::SimdIndexedLoad            0      0.00%    100.00% # Class of committed instruction (Count)
system.cpu0.commit.committedInstType_0::SimdIndexedStore            0      0.00%    100.00% # Class of committed instruction (Count)
system.cpu0.commit.committedInstType_0::SimdWholeRegisterLoad            0      0.00%    100.00% # Class of committed instruction (Count)
system.cpu0.commit.committedInstType_0::SimdWholeRegisterStore            0      0.00%    100.00% # Class of committed instruction (Count)
system.cpu0.commit.committedInstType_0::SimdUnitStrideFaultOnlyFirstLoad            0      0.00%    100.00% # Class of committed instruction (Count)
system.cpu0.commit.committedInstType_0::SimdUnitStrideSegmentedLoad            0      0.00%    100.00% # Class of committed instruction (Count)
system.cpu0.commit.committedInstType_0::SimdUnitStrideSegmentedStore            0      0.00%    100.00% # Class of committed instruction (Count)
system.cpu0.commit.committedInstType_0::SimdExt            0      0.00%    100.00% # Class of committed instruction (Count)
system.cpu0.commit.committedInstType_0::SimdFloatExt            0      0.00%    100.00% # Class of committed instruction (Count)
system.cpu0.commit.committedInstType_0::SimdConfig            0      0.00%    100.00% # Class of committed instruction (Count)
system.cpu0.commit.committedInstType_0::total  22379703042                       # Class of committed instruction (Count)
system.cpu0.commit.commitEligibleSamples   1587603371                       # number cycles where commit BW limit reached (Cycle)
system.cpu0.commitStats0.numInsts         13490908355                       # Number of instructions committed (thread level) (Count)
system.cpu0.commitStats0.numOps           22379703042                       # Number of ops (including micro ops) committed (thread level) (Count)
system.cpu0.commitStats0.numInstsNotNOP   13490908355                       # Number of instructions committed excluding NOPs or prefetches (Count)
system.cpu0.commitStats0.numOpsNotNOP     22379703042                       # Number of Ops (including micro ops) Simulated (Count)
system.cpu0.commitStats0.cpi                 1.799137                       # CPI: cycles per instruction (thread level) ((Cycle/Count))
system.cpu0.commitStats0.ipc                 0.555822                       # IPC: instructions per cycle (thread level) ((Count/Cycle))
system.cpu0.commitStats0.numMemRefs        8105723194                       # Number of memory references committed (Count)
system.cpu0.commitStats0.numFpInsts        1446914811                       # Number of float instructions (Count)
system.cpu0.commitStats0.numIntInsts      21591727836                       # Number of integer instructions (Count)
system.cpu0.commitStats0.numLoadInsts      5084613659                       # Number of load instructions (Count)
system.cpu0.commitStats0.numStoreInsts     3021109535                       # Number of store instructions (Count)
system.cpu0.commitStats0.numVecInsts                0                       # Number of vector instructions (Count)
system.cpu0.commitStats0.committedInstType::No_OpClass       340875      0.00%      0.00% # Class of committed instruction. (Count)
system.cpu0.commitStats0.committedInstType::IntAlu  13275187152     59.32%     59.32% # Class of committed instruction. (Count)
system.cpu0.commitStats0.committedInstType::IntMult     94190855      0.42%     59.74% # Class of committed instruction. (Count)
system.cpu0.commitStats0.committedInstType::IntDiv         3739      0.00%     59.74% # Class of committed instruction. (Count)
system.cpu0.commitStats0.committedInstType::FloatAdd    360353406      1.61%     61.35% # Class of committed instruction. (Count)
system.cpu0.commitStats0.committedInstType::FloatCmp            0      0.00%     61.35% # Class of committed instruction. (Count)
system.cpu0.commitStats0.committedInstType::FloatCvt          448      0.00%     61.35% # Class of committed instruction. (Count)
system.cpu0.commitStats0.committedInstType::FloatMult            0      0.00%     61.35% # Class of committed instruction. (Count)
system.cpu0.commitStats0.committedInstType::FloatMultAcc            0      0.00%     61.35% # Class of committed instruction. (Count)
system.cpu0.commitStats0.committedInstType::FloatDiv            0      0.00%     61.35% # Class of committed instruction. (Count)
system.cpu0.commitStats0.committedInstType::FloatMisc            0      0.00%     61.35% # Class of committed instruction. (Count)
system.cpu0.commitStats0.committedInstType::FloatSqrt            0      0.00%     61.35% # Class of committed instruction. (Count)
system.cpu0.commitStats0.committedInstType::SimdAdd          788      0.00%     61.35% # Class of committed instruction. (Count)
system.cpu0.commitStats0.committedInstType::SimdAddAcc            0      0.00%     61.35% # Class of committed instruction. (Count)
system.cpu0.commitStats0.committedInstType::SimdAlu    122458758      0.55%     61.90% # Class of committed instruction. (Count)
system.cpu0.commitStats0.committedInstType::SimdCmp            0      0.00%     61.90% # Class of committed instruction. (Count)
system.cpu0.commitStats0.committedInstType::SimdCvt         7178      0.00%     61.90% # Class of committed instruction. (Count)
system.cpu0.commitStats0.committedInstType::SimdMisc    120417713      0.54%     62.44% # Class of committed instruction. (Count)
system.cpu0.commitStats0.committedInstType::SimdMult            0      0.00%     62.44% # Class of committed instruction. (Count)
system.cpu0.commitStats0.committedInstType::SimdMultAcc            0      0.00%     62.44% # Class of committed instruction. (Count)
system.cpu0.commitStats0.committedInstType::SimdMatMultAcc            0      0.00%     62.44% # Class of committed instruction. (Count)
system.cpu0.commitStats0.committedInstType::SimdShift            0      0.00%     62.44% # Class of committed instruction. (Count)
system.cpu0.commitStats0.committedInstType::SimdShiftAcc            0      0.00%     62.44% # Class of committed instruction. (Count)
system.cpu0.commitStats0.committedInstType::SimdDiv            0      0.00%     62.44% # Class of committed instruction. (Count)
system.cpu0.commitStats0.committedInstType::SimdSqrt            0      0.00%     62.44% # Class of committed instruction. (Count)
system.cpu0.commitStats0.committedInstType::SimdFloatAdd     61022678      0.27%     62.71% # Class of committed instruction. (Count)
system.cpu0.commitStats0.committedInstType::SimdFloatAlu            0      0.00%     62.71% # Class of committed instruction. (Count)
system.cpu0.commitStats0.committedInstType::SimdFloatCmp            0      0.00%     62.71% # Class of committed instruction. (Count)
system.cpu0.commitStats0.committedInstType::SimdFloatCvt    178952726      0.80%     63.51% # Class of committed instruction. (Count)
system.cpu0.commitStats0.committedInstType::SimdFloatDiv      2086276      0.01%     63.52% # Class of committed instruction. (Count)
system.cpu0.commitStats0.committedInstType::SimdFloatMisc            0      0.00%     63.52% # Class of committed instruction. (Count)
system.cpu0.commitStats0.committedInstType::SimdFloatMult     58957156      0.26%     63.78% # Class of committed instruction. (Count)
system.cpu0.commitStats0.committedInstType::SimdFloatMultAcc            0      0.00%     63.78% # Class of committed instruction. (Count)
system.cpu0.commitStats0.committedInstType::SimdFloatMatMultAcc            0      0.00%     63.78% # Class of committed instruction. (Count)
system.cpu0.commitStats0.committedInstType::SimdFloatSqrt          100      0.00%     63.78% # Class of committed instruction. (Count)
system.cpu0.commitStats0.committedInstType::SimdReduceAdd            0      0.00%     63.78% # Class of committed instruction. (Count)
system.cpu0.commitStats0.committedInstType::SimdReduceAlu            0      0.00%     63.78% # Class of committed instruction. (Count)
system.cpu0.commitStats0.committedInstType::SimdReduceCmp            0      0.00%     63.78% # Class of committed instruction. (Count)
system.cpu0.commitStats0.committedInstType::SimdFloatReduceAdd            0      0.00%     63.78% # Class of committed instruction. (Count)
system.cpu0.commitStats0.committedInstType::SimdFloatReduceCmp            0      0.00%     63.78% # Class of committed instruction. (Count)
system.cpu0.commitStats0.committedInstType::SimdAes            0      0.00%     63.78% # Class of committed instruction. (Count)
system.cpu0.commitStats0.committedInstType::SimdAesMix            0      0.00%     63.78% # Class of committed instruction. (Count)
system.cpu0.commitStats0.committedInstType::SimdSha1Hash            0      0.00%     63.78% # Class of committed instruction. (Count)
system.cpu0.commitStats0.committedInstType::SimdSha1Hash2            0      0.00%     63.78% # Class of committed instruction. (Count)
system.cpu0.commitStats0.committedInstType::SimdSha256Hash            0      0.00%     63.78% # Class of committed instruction. (Count)
system.cpu0.commitStats0.committedInstType::SimdSha256Hash2            0      0.00%     63.78% # Class of committed instruction. (Count)
system.cpu0.commitStats0.committedInstType::SimdShaSigma2            0      0.00%     63.78% # Class of committed instruction. (Count)
system.cpu0.commitStats0.committedInstType::SimdShaSigma3            0      0.00%     63.78% # Class of committed instruction. (Count)
system.cpu0.commitStats0.committedInstType::SimdPredAlu            0      0.00%     63.78% # Class of committed instruction. (Count)
system.cpu0.commitStats0.committedInstType::Matrix            0      0.00%     63.78% # Class of committed instruction. (Count)
system.cpu0.commitStats0.committedInstType::MatrixMov            0      0.00%     63.78% # Class of committed instruction. (Count)
system.cpu0.commitStats0.committedInstType::MatrixOP            0      0.00%     63.78% # Class of committed instruction. (Count)
system.cpu0.commitStats0.committedInstType::MemRead   4664947124     20.84%     84.63% # Class of committed instruction. (Count)
system.cpu0.commitStats0.committedInstType::MemWrite   2898188947     12.95%     97.58% # Class of committed instruction. (Count)
system.cpu0.commitStats0.committedInstType::FloatMemRead    419666535      1.88%     99.45% # Class of committed instruction. (Count)
system.cpu0.commitStats0.committedInstType::FloatMemWrite    122920588      0.55%    100.00% # Class of committed instruction. (Count)
system.cpu0.commitStats0.committedInstType::IprAccess            0      0.00%    100.00% # Class of committed instruction. (Count)
system.cpu0.commitStats0.committedInstType::InstPrefetch            0      0.00%    100.00% # Class of committed instruction. (Count)
system.cpu0.commitStats0.committedInstType::SimdUnitStrideLoad            0      0.00%    100.00% # Class of committed instruction. (Count)
system.cpu0.commitStats0.committedInstType::SimdUnitStrideStore            0      0.00%    100.00% # Class of committed instruction. (Count)
system.cpu0.commitStats0.committedInstType::SimdUnitStrideMaskLoad            0      0.00%    100.00% # Class of committed instruction. (Count)
system.cpu0.commitStats0.committedInstType::SimdUnitStrideMaskStore            0      0.00%    100.00% # Class of committed instruction. (Count)
system.cpu0.commitStats0.committedInstType::SimdStridedLoad            0      0.00%    100.00% # Class of committed instruction. (Count)
system.cpu0.commitStats0.committedInstType::SimdStridedStore            0      0.00%    100.00% # Class of committed instruction. (Count)
system.cpu0.commitStats0.committedInstType::SimdIndexedLoad            0      0.00%    100.00% # Class of committed instruction. (Count)
system.cpu0.commitStats0.committedInstType::SimdIndexedStore            0      0.00%    100.00% # Class of committed instruction. (Count)
system.cpu0.commitStats0.committedInstType::SimdWholeRegisterLoad            0      0.00%    100.00% # Class of committed instruction. (Count)
system.cpu0.commitStats0.committedInstType::SimdWholeRegisterStore            0      0.00%    100.00% # Class of committed instruction. (Count)
system.cpu0.commitStats0.committedInstType::SimdUnitStrideFaultOnlyFirstLoad            0      0.00%    100.00% # Class of committed instruction. (Count)
system.cpu0.commitStats0.committedInstType::SimdUnitStrideSegmentedLoad            0      0.00%    100.00% # Class of committed instruction. (Count)
system.cpu0.commitStats0.committedInstType::SimdUnitStrideSegmentedStore            0      0.00%    100.00% # Class of committed instruction. (Count)
system.cpu0.commitStats0.committedInstType::SimdExt            0      0.00%    100.00% # Class of committed instruction. (Count)
system.cpu0.commitStats0.committedInstType::SimdFloatExt            0      0.00%    100.00% # Class of committed instruction. (Count)
system.cpu0.commitStats0.committedInstType::SimdConfig            0      0.00%    100.00% # Class of committed instruction. (Count)
system.cpu0.commitStats0.committedInstType::total  22379703042                       # Class of committed instruction. (Count)
system.cpu0.commitStats0.committedControl::IsControl   1655868845                       # Class of control type instructions committed (Count)
system.cpu0.commitStats0.committedControl::IsDirectControl    977506488                       # Class of control type instructions committed (Count)
system.cpu0.commitStats0.committedControl::IsIndirectControl    678362357                       # Class of control type instructions committed (Count)
system.cpu0.commitStats0.committedControl::IsCondControl    298101672                       # Class of control type instructions committed (Count)
system.cpu0.commitStats0.committedControl::IsUncondControl   1357767173                       # Class of control type instructions committed (Count)
system.cpu0.commitStats0.committedControl::IsCall    675888916                       # Class of control type instructions committed (Count)
system.cpu0.commitStats0.committedControl::IsReturn    675888912                       # Class of control type instructions committed (Count)
system.cpu0.dcache.demandHits::cpu0.data   4685250214                       # number of demand (read+write) hits (Count)
system.cpu0.dcache.demandHits::total       4685250214                       # number of demand (read+write) hits (Count)
system.cpu0.dcache.overallHits::cpu0.data   4685250214                       # number of overall hits (Count)
system.cpu0.dcache.overallHits::total      4685250214                       # number of overall hits (Count)
system.cpu0.dcache.demandMisses::cpu0.data    117796631                       # number of demand (read+write) misses (Count)
system.cpu0.dcache.demandMisses::total      117796631                       # number of demand (read+write) misses (Count)
system.cpu0.dcache.overallMisses::cpu0.data    117796631                       # number of overall misses (Count)
system.cpu0.dcache.overallMisses::total     117796631                       # number of overall misses (Count)
system.cpu0.dcache.demandMissLatency::cpu0.data 5477828720660                       # number of demand (read+write) miss ticks (Tick)
system.cpu0.dcache.demandMissLatency::total 5477828720660                       # number of demand (read+write) miss ticks (Tick)
system.cpu0.dcache.overallMissLatency::cpu0.data 5477828720660                       # number of overall miss ticks (Tick)
system.cpu0.dcache.overallMissLatency::total 5477828720660                       # number of overall miss ticks (Tick)
system.cpu0.dcache.demandAccesses::cpu0.data   4803046845                       # number of demand (read+write) accesses (Count)
system.cpu0.dcache.demandAccesses::total   4803046845                       # number of demand (read+write) accesses (Count)
system.cpu0.dcache.overallAccesses::cpu0.data   4803046845                       # number of overall (read+write) accesses (Count)
system.cpu0.dcache.overallAccesses::total   4803046845                       # number of overall (read+write) accesses (Count)
system.cpu0.dcache.demandMissRate::cpu0.data     0.024525                       # miss rate for demand accesses (Ratio)
system.cpu0.dcache.demandMissRate::total     0.024525                       # miss rate for demand accesses (Ratio)
system.cpu0.dcache.overallMissRate::cpu0.data     0.024525                       # miss rate for overall accesses (Ratio)
system.cpu0.dcache.overallMissRate::total     0.024525                       # miss rate for overall accesses (Ratio)
system.cpu0.dcache.demandAvgMissLatency::cpu0.data 46502.422643                       # average overall miss latency in ticks ((Tick/Count))
system.cpu0.dcache.demandAvgMissLatency::total 46502.422643                       # average overall miss latency in ticks ((Tick/Count))
system.cpu0.dcache.overallAvgMissLatency::cpu0.data 46502.422643                       # average overall miss latency ((Tick/Count))
system.cpu0.dcache.overallAvgMissLatency::total 46502.422643                       # average overall miss latency ((Tick/Count))
system.cpu0.dcache.blockedCycles::no_mshrs      4747493                       # number of cycles access was blocked (Cycle)
system.cpu0.dcache.blockedCycles::no_targets        27128                       # number of cycles access was blocked (Cycle)
system.cpu0.dcache.blockedCauses::no_mshrs         5093                       # number of times access was blocked (Count)
system.cpu0.dcache.blockedCauses::no_targets           38                       # number of times access was blocked (Count)
system.cpu0.dcache.avgBlocked::no_mshrs    932.160416                       # average number of cycles each access was blocked ((Cycle/Count))
system.cpu0.dcache.avgBlocked::no_targets   713.894737                       # average number of cycles each access was blocked ((Cycle/Count))
system.cpu0.dcache.writebacks::writebacks     36953113                       # number of writebacks (Count)
system.cpu0.dcache.writebacks::total         36953113                       # number of writebacks (Count)
[...]
system.l2.power_state.pwrStateResidencyTicks::UNDEFINED 7597135078528                       # Cumulative time (in ticks) in various power states (Tick)
system.l2.tags.tagsInUse                 32742.061677                       # Average ticks per tags in use ((Tick/Count))
system.l2.tags.totalRefs                    235817261                       # Total number of references to valid blocks. (Count)
system.l2.tags.sampledRefs                   10650880                       # Sample count of references to valid blocks. (Count)
system.l2.tags.avgRefs                      22.140636                       # Average number of references to valid blocks. ((Count/Count))
system.l2.tags.warmupTick                      430000                       # The tick when the warmup percentage was hit. (Tick)
system.l2.tags.occupancies::writebacks      15.570392                       # Average occupied blocks per tick, per requestor ((Count/Tick))
system.l2.tags.occupancies::cpu0.inst       12.601341                       # Average occupied blocks per tick, per requestor ((Count/Tick))
system.l2.tags.occupancies::cpu0.data    32713.889945                       # Average occupied blocks per tick, per requestor ((Count/Tick))
system.l2.tags.avgOccs::writebacks           0.000475                       # Average percentage of cache occupancy ((Ratio/Tick))
system.l2.tags.avgOccs::cpu0.inst            0.000385                       # Average percentage of cache occupancy ((Ratio/Tick))
system.l2.tags.avgOccs::cpu0.data            0.998349                       # Average percentage of cache occupancy ((Ratio/Tick))
system.l2.tags.avgOccs::total                0.999208                       # Average percentage of cache occupancy ((Ratio/Tick))
system.l2.tags.occupanciesTaskId::1024          32768                       # Occupied blocks per task id (Count)
system.l2.tags.ageTaskId_1024::0                   37                       # Occupied blocks per task id, per block age (Count)
system.l2.tags.ageTaskId_1024::1                  236                       # Occupied blocks per task id, per block age (Count)
system.l2.tags.ageTaskId_1024::2                  846                       # Occupied blocks per task id, per block age (Count)
system.l2.tags.ageTaskId_1024::3                 8258                       # Occupied blocks per task id, per block age (Count)
system.l2.tags.ageTaskId_1024::4                23391                       # Occupied blocks per task id, per block age (Count)
system.l2.tags.ratioOccsTaskId::1024                1                       # Ratio of occupied blocks and all blocks, per task id (Ratio)
system.l2.tags.tagAccesses                 1897190904                       # Number of tag accesses (Count)
system.l2.tags.dataAccesses                1897190904                       # Number of data accesses (Count)
system.l2.tags.power_state.pwrStateResidencyTicks::UNDEFINED 7597135078528                       # Cumulative time (in ticks) in various power states (Tick)
system.mem_ctrls.bytesRead::cpu0.inst          286912                       # Number of bytes read from this memory (Byte)
system.mem_ctrls.bytesRead::cpu0.data       681120832                       # Number of bytes read from this memory (Byte)
system.mem_ctrls.bytesRead::total           681407744                       # Number of bytes read from this memory (Byte)
system.mem_ctrls.bytesInstRead::cpu0.inst       286912                       # Number of instructions bytes read from this memory (Byte)
system.mem_ctrls.bytesInstRead::total          286912                       # Number of instructions bytes read from this memory (Byte)
system.mem_ctrls.bytesWritten::writebacks    159422912                       # Number of bytes written to this memory (Byte)
system.mem_ctrls.bytesWritten::total        159422912                       # Number of bytes written to this memory (Byte)
system.mem_ctrls.numReads::cpu0.inst             4483                       # Number of read requests responded to by this memory (Count)
system.mem_ctrls.numReads::cpu0.data         10642513                       # Number of read requests responded to by this memory (Count)
system.mem_ctrls.numReads::total             10646996                       # Number of read requests responded to by this memory (Count)
system.mem_ctrls.numWrites::writebacks        2490983                       # Number of write requests responded to by this memory (Count)
system.mem_ctrls.numWrites::total             2490983                       # Number of write requests responded to by this memory (Count)
system.mem_ctrls.bwRead::cpu0.inst              37766                       # Total read bandwidth from this memory ((Byte/Second))
system.mem_ctrls.bwRead::cpu0.data           89654959                       # Total read bandwidth from this memory ((Byte/Second))
system.mem_ctrls.bwRead::total               89692725                       # Total read bandwidth from this memory ((Byte/Second))
system.mem_ctrls.bwInstRead::cpu0.inst          37766                       # Instruction read bandwidth from this memory ((Byte/Second))
system.mem_ctrls.bwInstRead::total              37766                       # Instruction read bandwidth from this memory ((Byte/Second))
system.mem_ctrls.bwWrite::writebacks         20984609                       # Write bandwidth from this memory ((Byte/Second))
system.mem_ctrls.bwWrite::total              20984609                       # Write bandwidth from this memory ((Byte/Second))
system.mem_ctrls.bwTotal::writebacks         20984609                       # Total bandwidth to/from this memory ((Byte/Second))
system.mem_ctrls.bwTotal::cpu0.inst             37766                       # Total bandwidth to/from this memory ((Byte/Second))
system.mem_ctrls.bwTotal::cpu0.data          89654959                       # Total bandwidth to/from this memory ((Byte/Second))
system.mem_ctrls.bwTotal::total             110677334                       # Total bandwidth to/from this memory ((Byte/Second))
system.mem_ctrls.power_state.pwrStateResidencyTicks::UNDEFINED 7597135078528                       # Cumulative time (in ticks) in various power states (Tick)
system.membus.transDist::ReadResp             8350387                       # Transaction distribution (Count)
system.membus.transDist::WritebackDirty       2490983                       # Transaction distribution (Count)
system.membus.transDist::CleanEvict           8123143                       # Transaction distribution (Count)
system.membus.transDist::UpgradeReq                 1                       # Transaction distribution (Count)
system.membus.transDist::ReadExReq            2296609                       # Transaction distribution (Count)
system.membus.transDist::ReadExResp           2296609                       # Transaction distribution (Count)
system.membus.transDist::ReadSharedReq        8350387                       # Transaction distribution (Count)
system.membus.pktCount_system.l2.mem_side_port::system.mem_ctrls.port     31908119                       # Packet count per connected requestor and responder (Count)
system.membus.pktCount_system.l2.mem_side_port::total     31908119                       # Packet count per connected requestor and responder (Count)
system.membus.pktCount::total                31908119                       # Packet count per connected requestor and responder (Count)
system.membus.pktSize_system.l2.mem_side_port::system.mem_ctrls.port    840830656                       # Cumulative packet size per connected requestor and responder (Byte)
system.membus.pktSize_system.l2.mem_side_port::total    840830656                       # Cumulative packet size per connected requestor and responder (Byte)
system.membus.pktSize::total                840830656                       # Cumulative packet size per connected requestor and responder (Byte)
system.membus.snoops                                0                       # Total snoops (Count)
system.membus.snoopTraffic                          0                       # Total snoop traffic (Byte)
system.membus.snoopFanout::samples           10646997                       # Request fanout histogram (Count)
system.membus.snoopFanout::mean                     0                       # Request fanout histogram (Count)
system.membus.snoopFanout::stdev                    0                       # Request fanout histogram (Count)
system.membus.snoopFanout::underflows               0      0.00%      0.00% # Request fanout histogram (Count)
system.membus.snoopFanout::0                 10646997    100.00%    100.00% # Request fanout histogram (Count)
system.membus.snoopFanout::1                        0      0.00%    100.00% # Request fanout histogram (Count)
system.membus.snoopFanout::overflows                0      0.00%    100.00% # Request fanout histogram (Count)
system.membus.snoopFanout::min_value                0                       # Request fanout histogram (Count)
system.membus.snoopFanout::max_value                0                       # Request fanout histogram (Count)
system.membus.snoopFanout::total             10646997                       # Request fanout histogram (Count)
system.membus.power_state.pwrStateResidencyTicks::UNDEFINED 7597135078528                       # Cumulative time (in ticks) in various power states (Tick)
system.membus.reqLayer16.occupancy       102637118418                       # Layer occupancy (ticks) (Tick)
system.membus.reqLayer16.utilization              0.0                       # Layer utilization (Ratio)
system.membus.respLayer1.occupancy       146483097551                       # Layer occupancy (ticks) (Tick)
system.membus.respLayer1.utilization              0.0                       # Layer utilization (Ratio)
system.membus.snoop_filter.totRequests       21261123                       # Total number of requests made to the snoop filter. (Count)
system.membus.snoop_filter.hitSingleRequests     10614135                       # Number of requests hitting in the snoop filter with a single holder of the requested data. (Count)
system.membus.snoop_filter.hitMultiRequests            0                       # Number of requests hitting in the snoop filter with multiple (>1) holders of the requested data. (Count)
system.membus.snoop_filter.totSnoops                0                       # Total number of snoops made to the snoop filter. (Count)
system.membus.snoop_filter.hitSingleSnoops            0                       # Number of snoops hitting in the snoop filter with a single holder of the requested data. (Count)
system.membus.snoop_filter.hitMultiSnoops            0                       # Number of snoops hitting in the snoop filter with multiple (>1) holders of the requested data. (Count)
system.tol2bus.transDist::ReadResp          115253640                       # Transaction distribution (Count)
system.tol2bus.transDist::WritebackDirty     39444096                       # Transaction distribution (Count)
system.tol2bus.transDist::WritebackClean       561090                       # Transaction distribution (Count)
system.tol2bus.transDist::CleanEvict         88521240                       # Transaction distribution (Count)
system.tol2bus.transDist::UpgradeReq                5                       # Transaction distribution (Count)
system.tol2bus.transDist::UpgradeResp               5                       # Transaction distribution (Count)
system.tol2bus.transDist::ReadExReq           2655702                       # Transaction distribution (Count)
system.tol2bus.transDist::ReadExResp          2655702                       # Transaction distribution (Count)
system.tol2bus.transDist::ReadCleanReq         561607                       # Transaction distribution (Count)
system.tol2bus.transDist::ReadSharedReq     114692034                       # Transaction distribution (Count)
system.tol2bus.pktCount_system.cpu0.icache.mem_side_port::system.l2.cpu_side_port      1684293                       # Packet count per connected requestor and responder (Count)
system.tol2bus.pktCount_system.cpu0.dcache.mem_side_port::system.l2.cpu_side_port    352042706                       # Packet count per connected requestor and responder (Count)
system.tol2bus.pktCount::total              353726999                       # Packet count per connected requestor and responder (Count)
system.tol2bus.pktSize_system.cpu0.icache.mem_side_port::system.l2.cpu_side_port     71851904                       # Cumulative packet size per connected requestor and responder (Byte)
system.tol2bus.pktSize_system.cpu0.dcache.mem_side_port::system.l2.cpu_side_port   9875254336                       # Cumulative packet size per connected requestor and responder (Byte)
system.tol2bus.pktSize::total              9947106240                       # Cumulative packet size per connected requestor and responder (Byte)
system.tol2bus.snoops                        10618122                       # Total snoops (Count)
system.tol2bus.snoopTraffic                 159423552                       # Total snoop traffic (Byte)
system.tol2bus.snoopFanout::samples         128527460                       # Request fanout histogram (Count)
system.tol2bus.snoopFanout::mean             0.000034                       # Request fanout histogram (Count)
system.tol2bus.snoopFanout::stdev            0.005863                       # Request fanout histogram (Count)
system.tol2bus.snoopFanout::underflows              0      0.00%      0.00% # Request fanout histogram (Count)
system.tol2bus.snoopFanout::0               128523047    100.00%    100.00% # Request fanout histogram (Count)
system.tol2bus.snoopFanout::1                    4411      0.00%    100.00% # Request fanout histogram (Count)
system.tol2bus.snoopFanout::2                       2      0.00%    100.00% # Request fanout histogram (Count)
system.tol2bus.snoopFanout::3                       0      0.00%    100.00% # Request fanout histogram (Count)
system.tol2bus.snoopFanout::4                       0      0.00%    100.00% # Request fanout histogram (Count)
system.tol2bus.snoopFanout::5                       0      0.00%    100.00% # Request fanout histogram (Count)
system.tol2bus.snoopFanout::6                       0      0.00%    100.00% # Request fanout histogram (Count)
system.tol2bus.snoopFanout::7                       0      0.00%    100.00% # Request fanout histogram (Count)
system.tol2bus.snoopFanout::8                       0      0.00%    100.00% # Request fanout histogram (Count)
system.tol2bus.snoopFanout::9                       0      0.00%    100.00% # Request fanout histogram (Count)
system.tol2bus.snoopFanout::10                      0      0.00%    100.00% # Request fanout histogram (Count)
system.tol2bus.snoopFanout::11                      0      0.00%    100.00% # Request fanout histogram (Count)
system.tol2bus.snoopFanout::12                      0      0.00%    100.00% # Request fanout histogram (Count)
system.tol2bus.snoopFanout::13                      0      0.00%    100.00% # Request fanout histogram (Count)
system.tol2bus.snoopFanout::14                      0      0.00%    100.00% # Request fanout histogram (Count)
system.tol2bus.snoopFanout::15                      0      0.00%    100.00% # Request fanout histogram (Count)
system.tol2bus.snoopFanout::16                      0      0.00%    100.00% # Request fanout histogram (Count)
system.tol2bus.snoopFanout::17                      0      0.00%    100.00% # Request fanout histogram (Count)
system.tol2bus.snoopFanout::18                      0      0.00%    100.00% # Request fanout histogram (Count)
system.tol2bus.snoopFanout::19                      0      0.00%    100.00% # Request fanout histogram (Count)
system.tol2bus.snoopFanout::20                      0      0.00%    100.00% # Request fanout histogram (Count)
system.tol2bus.snoopFanout::21                      0      0.00%    100.00% # Request fanout histogram (Count)
system.tol2bus.snoopFanout::22                      0      0.00%    100.00% # Request fanout histogram (Count)
system.tol2bus.snoopFanout::23                      0      0.00%    100.00% # Request fanout histogram (Count)
system.tol2bus.snoopFanout::24                      0      0.00%    100.00% # Request fanout histogram (Count)
system.tol2bus.snoopFanout::25                      0      0.00%    100.00% # Request fanout histogram (Count)
system.tol2bus.snoopFanout::26                      0      0.00%    100.00% # Request fanout histogram (Count)
system.tol2bus.snoopFanout::27                      0      0.00%    100.00% # Request fanout histogram (Count)
system.tol2bus.snoopFanout::28                      0      0.00%    100.00% # Request fanout histogram (Count)
system.tol2bus.snoopFanout::29                      0      0.00%    100.00% # Request fanout histogram (Count)
system.tol2bus.snoopFanout::30                      0      0.00%    100.00% # Request fanout histogram (Count)
system.tol2bus.snoopFanout::31                      0      0.00%    100.00% # Request fanout histogram (Count)
system.tol2bus.snoopFanout::32                      0      0.00%    100.00% # Request fanout histogram (Count)
system.tol2bus.snoopFanout::overflows               0      0.00%    100.00% # Request fanout histogram (Count)
system.tol2bus.snoopFanout::min_value               0                       # Request fanout histogram (Count)
system.tol2bus.snoopFanout::max_value               2                       # Request fanout histogram (Count)
system.tol2bus.snoopFanout::total           128527460                       # Request fanout histogram (Count)
system.tol2bus.power_state.pwrStateResidencyTicks::UNDEFINED 7597135078528                       # Cumulative time (in ticks) in various power states (Tick)
system.tol2bus.reqLayer0.occupancy        97294819284                       # Layer occupancy (ticks) (Tick)
system.tol2bus.reqLayer0.utilization              0.0                       # Layer utilization (Ratio)
system.tol2bus.respLayer0.occupancy         527351466                       # Layer occupancy (ticks) (Tick)
system.tol2bus.respLayer0.utilization             0.0                       # Layer utilization (Ratio)
system.tol2bus.respLayer1.occupancy      110189526293                       # Layer occupancy (ticks) (Tick)
system.tol2bus.respLayer1.utilization             0.0                       # Layer utilization (Ratio)
system.tol2bus.snoop_filter.totRequests     235817662                       # Total number of requests made to the snoop filter. (Count)
system.tol2bus.snoop_filter.hitSingleRequests    117908318                       # Number of requests hitting in the snoop filter with a single holder of the requested data. (Count)
system.tol2bus.snoop_filter.hitMultiRequests          181                       # Number of requests hitting in the snoop filter with multiple (>1) holders of the requested data. (Count)
system.tol2bus.snoop_filter.totSnoops            4228                       # Total number of snoops made to the snoop filter. (Count)
system.tol2bus.snoop_filter.hitSingleSnoops         4226                       # Number of snoops hitting in the snoop filter with a single holder of the requested data. (Count)
system.tol2bus.snoop_filter.hitMultiSnoops            2                       # Number of snoops hitting in the snoop filter with multiple (>1) holders of the requested data. (Count)
system.voltage_domain.voltage                       1                       # Voltage in Volts (Volt)
system.workload.inst.arm                            0                       # number of arm instructions executed (Count)
system.workload.inst.quiesce                        0                       # number of quiesce instructions executed (Count)

---------- End Simulation Statistics   ----------
