
---------- Begin Simulation Statistics ----------
simSeconds                                   0.791407                       # Number of seconds simulated (Second)
simTicks                                 791406558667                       # Number of ticks simulated (Tick)
finalTick                                791406558667                       # Number of ticks from beginning of simulation (restored from checkpoints and never reset) (Tick)
simFreq                                  1000000000000                       # The number of ticks per simulated second ((Tick/Second))
hostSeconds                                   1867.61                       # Real time elapsed on the host (Second)
hostTickRate                                423754581                       # The number of ticks simulated per host second (ticks/s) ((Tick/Second))
hostMemory                                    1619860                       # Number of bytes of host memory used (Byte)
simInsts                                     70170045                       # Number of instructions simulated (Count)
simOps                                      127861549                       # Number of ops (including micro ops) simulated (Count)
hostInstRate                                    37572                       # Simulator instruction rate (inst/s) ((Count/Second))
hostOpRate                                      68463                       # Simulator op (including micro ops) rate (op/s) ((Count/Second))
system.clk_domain.clock                          2500                       # Clock period in ticks (Tick)
system.cpu.numCycles                       2528455460                       # Number of cpu cycles simulated (Cycle)
system.cpu.cpi                              36.033260                       # CPI: cycles per instruction (core level) ((Cycle/Count))
system.cpu.ipc                               0.027752                       # IPC: instructions per cycle (core level) ((Count/Cycle))
system.cpu.numWorkItemsStarted                      0                       # Number of work items this cpu started (Count)
system.cpu.numWorkItemsCompleted                    0                       # Number of work items this cpu completed (Count)
system.cpu.instsAdded                       128672241                       # Number of instructions added to the IQ (excludes non-spec) (Count)
system.cpu.nonSpecInstsAdded                      929                       # Number of non-speculative instructions added to the IQ (Count)
system.cpu.instsIssued                      138165247                       # Number of instructions issued (Count)
system.cpu.squashedInstsIssued                   2310                       # Number of squashed instructions issued (Count)
system.cpu.squashedInstsExamined               811615                       # Number of squashed instructions iterated over during squash; mainly for profiling (Count)
system.cpu.squashedOperandsExamined           1292099                       # Number of squashed operands that are examined and possibly removed from graph (Count)
system.cpu.squashedNonSpecRemoved                 254                       # Number of squashed non-spec instructions that were removed (Count)
system.cpu.numIssuedDist::samples          2525015066                       # Number of insts issued each cycle (Count)
system.cpu.numIssuedDist::mean               0.054719                       # Number of insts issued each cycle (Count)
system.cpu.numIssuedDist::stdev              0.500431                       # Number of insts issued each cycle (Count)
system.cpu.numIssuedDist::underflows                0      0.00%      0.00% # Number of insts issued each cycle (Count)
system.cpu.numIssuedDist::0                2484521512     98.40%     98.40% # Number of insts issued each cycle (Count)
system.cpu.numIssuedDist::1                  10039184      0.40%     98.79% # Number of insts issued each cycle (Count)
system.cpu.numIssuedDist::2                   5879255      0.23%     99.03% # Number of insts issued each cycle (Count)
system.cpu.numIssuedDist::3                   5809270      0.23%     99.26% # Number of insts issued each cycle (Count)
system.cpu.numIssuedDist::4                   7539148      0.30%     99.56% # Number of insts issued each cycle (Count)
system.cpu.numIssuedDist::5                   3718839      0.15%     99.70% # Number of insts issued each cycle (Count)
system.cpu.numIssuedDist::6                   4035193      0.16%     99.86% # Number of insts issued each cycle (Count)
system.cpu.numIssuedDist::7                   1803522      0.07%     99.93% # Number of insts issued each cycle (Count)
system.cpu.numIssuedDist::8                   1669143      0.07%    100.00% # Number of insts issued each cycle (Count)
system.cpu.numIssuedDist::overflows                 0      0.00%    100.00% # Number of insts issued each cycle (Count)
system.cpu.numIssuedDist::min_value                 0                       # Number of insts issued each cycle (Count)
system.cpu.numIssuedDist::max_value                 8                       # Number of insts issued each cycle (Count)
system.cpu.numIssuedDist::total            2525015066                       # Number of insts issued each cycle (Count)
system.cpu.statFuBusy::No_OpClass                   0      0.00%      0.00% # attempts to use FU when none available (Count)
system.cpu.statFuBusy::IntAlu                  757676     23.49%     23.49% # attempts to use FU when none available (Count)
system.cpu.statFuBusy::IntMult                      0      0.00%     23.49% # attempts to use FU when none available (Count)
system.cpu.statFuBusy::IntDiv                       0      0.00%     23.49% # attempts to use FU when none available (Count)
system.cpu.statFuBusy::FloatAdd                     0      0.00%     23.49% # attempts to use FU when none available (Count)
system.cpu.statFuBusy::FloatCmp                     0      0.00%     23.49% # attempts to use FU when none available (Count)
system.cpu.statFuBusy::FloatCvt                     1      0.00%     23.49% # attempts to use FU when none available (Count)
system.cpu.statFuBusy::FloatMult                    0      0.00%     23.49% # attempts to use FU when none available (Count)
system.cpu.statFuBusy::FloatMultAcc                 0      0.00%     23.49% # attempts to use FU when none available (Count)
system.cpu.statFuBusy::FloatDiv                     0      0.00%     23.49% # attempts to use FU when none available (Count)
system.cpu.statFuBusy::FloatMisc                    0      0.00%     23.49% # attempts to use FU when none available (Count)
system.cpu.statFuBusy::FloatSqrt                    0      0.00%     23.49% # attempts to use FU when none available (Count)
system.cpu.statFuBusy::SimdAdd                      0      0.00%     23.49% # attempts to use FU when none available (Count)
system.cpu.statFuBusy::SimdAddAcc                   0      0.00%     23.49% # attempts to use FU when none available (Count)
system.cpu.statFuBusy::SimdAlu                     18      0.00%     23.49% # attempts to use FU when none available (Count)
system.cpu.statFuBusy::SimdCmp                      0      0.00%     23.49% # attempts to use FU when none available (Count)
system.cpu.statFuBusy::SimdCvt                      4      0.00%     23.49% # attempts to use FU when none available (Count)
system.cpu.statFuBusy::SimdMisc                     1      0.00%     23.49% # attempts to use FU when none available (Count)
system.cpu.statFuBusy::SimdMult                     0      0.00%     23.49% # attempts to use FU when none available (Count)
system.cpu.statFuBusy::SimdMultAcc                  0      0.00%     23.49% # attempts to use FU when none available (Count)
system.cpu.statFuBusy::SimdMatMultAcc               0      0.00%     23.49% # attempts to use FU when none available (Count)
system.cpu.statFuBusy::SimdShift                    3      0.00%     23.49% # attempts to use FU when none available (Count)
system.cpu.statFuBusy::SimdShiftAcc                 0      0.00%     23.49% # attempts to use FU when none available (Count)
system.cpu.statFuBusy::SimdDiv                      0      0.00%     23.49% # attempts to use FU when none available (Count)
system.cpu.statFuBusy::SimdSqrt                     0      0.00%     23.49% # attempts to use FU when none available (Count)
system.cpu.statFuBusy::SimdFloatAdd                 0      0.00%     23.49% # attempts to use FU when none available (Count)
system.cpu.statFuBusy::SimdFloatAlu                 0      0.00%     23.49% # attempts to use FU when none available (Count)
system.cpu.statFuBusy::SimdFloatCmp                 0      0.00%     23.49% # attempts to use FU when none available (Count)
system.cpu.statFuBusy::SimdFloatCvt                 0      0.00%     23.49% # attempts to use FU when none available (Count)
system.cpu.statFuBusy::SimdFloatDiv                 0      0.00%     23.49% # attempts to use FU when none available (Count)
system.cpu.statFuBusy::SimdFloatMisc                0      0.00%     23.49% # attempts to use FU when none available (Count)
system.cpu.statFuBusy::SimdFloatMult                0      0.00%     23.49% # attempts to use FU when none available (Count)
system.cpu.statFuBusy::SimdFloatMultAcc             0      0.00%     23.49% # attempts to use FU when none available (Count)
system.cpu.statFuBusy::SimdFloatMatMultAcc            0      0.00%     23.49% # attempts to use FU when none available (Count)
system.cpu.statFuBusy::SimdFloatSqrt                0      0.00%     23.49% # attempts to use FU when none available (Count)
system.cpu.statFuBusy::SimdReduceAdd                0      0.00%     23.49% # attempts to use FU when none available (Count)
system.cpu.statFuBusy::SimdReduceAlu                0      0.00%     23.49% # attempts to use FU when none available (Count)
system.cpu.statFuBusy::SimdReduceCmp                0      0.00%     23.49% # attempts to use FU when none available (Count)
system.cpu.statFuBusy::SimdFloatReduceAdd            0      0.00%     23.49% # attempts to use FU when none available (Count)
system.cpu.statFuBusy::SimdFloatReduceCmp            0      0.00%     23.49% # attempts to use FU when none available (Count)
system.cpu.statFuBusy::SimdAes                      0      0.00%     23.49% # attempts to use FU when none available (Count)
system.cpu.statFuBusy::SimdAesMix                   0      0.00%     23.49% # attempts to use FU when none available (Count)
system.cpu.statFuBusy::SimdSha1Hash                 0      0.00%     23.49% # attempts to use FU when none available (Count)
system.cpu.statFuBusy::SimdSha1Hash2                0      0.00%     23.49% # attempts to use FU when none available (Count)
system.cpu.statFuBusy::SimdSha256Hash               0      0.00%     23.49% # attempts to use FU when none available (Count)
system.cpu.statFuBusy::SimdSha256Hash2              0      0.00%     23.49% # attempts to use FU when none available (Count)
system.cpu.statFuBusy::SimdShaSigma2                0      0.00%     23.49% # attempts to use FU when none available (Count)
system.cpu.statFuBusy::SimdShaSigma3                0      0.00%     23.49% # attempts to use FU when none available (Count)
system.cpu.statFuBusy::SimdPredAlu                  0      0.00%     23.49% # attempts to use FU when none available (Count)
system.cpu.statFuBusy::Matrix                       0      0.00%     23.49% # attempts to use FU when none available (Count)
system.cpu.statFuBusy::MatrixMov                    0      0.00%     23.49% # attempts to use FU when none available (Count)
system.cpu.statFuBusy::MatrixOP                     0      0.00%     23.49% # attempts to use FU when none available (Count)
system.cpu.statFuBusy::MemRead                2058069     63.80%     87.29% # attempts to use FU when none available (Count)
system.cpu.statFuBusy::MemWrite                409418     12.69%     99.99% # attempts to use FU when none available (Count)
system.cpu.statFuBusy::FloatMemRead               404      0.01%    100.00% # attempts to use FU when none available (Count)
system.cpu.statFuBusy::FloatMemWrite                2      0.00%    100.00% # attempts to use FU when none available (Count)
system.cpu.statFuBusy::IprAccess                    0      0.00%    100.00% # attempts to use FU when none available (Count)
system.cpu.statFuBusy::InstPrefetch                 0      0.00%    100.00% # attempts to use FU when none available (Count)
system.cpu.statFuBusy::SimdUnitStrideLoad            0      0.00%    100.00% # attempts to use FU when none available (Count)
system.cpu.statFuBusy::SimdUnitStrideStore            0      0.00%    100.00% # attempts to use FU when none available (Count)
system.cpu.statFuBusy::SimdUnitStrideMaskLoad            0      0.00%    100.00% # attempts to use FU when none available (Count)
system.cpu.statFuBusy::SimdUnitStrideMaskStore            0      0.00%    100.00% # attempts to use FU when none available (Count)
system.cpu.statFuBusy::SimdStridedLoad              0      0.00%    100.00% # attempts to use FU when none available (Count)
system.cpu.statFuBusy::SimdStridedStore             0      0.00%    100.00% # attempts to use FU when none available (Count)
system.cpu.statFuBusy::SimdIndexedLoad              0      0.00%    100.00% # attempts to use FU when none available (Count)
system.cpu.statFuBusy::SimdIndexedStore             0      0.00%    100.00% # attempts to use FU when none available (Count)
system.cpu.statFuBusy::SimdWholeRegisterLoad            0      0.00%    100.00% # attempts to use FU when none available (Count)
system.cpu.statFuBusy::SimdWholeRegisterStore            0      0.00%    100.00% # attempts to use FU when none available (Count)
system.cpu.statFuBusy::SimdUnitStrideFaultOnlyFirstLoad            0      0.00%    100.00% # attempts to use FU when none available (Count)
system.cpu.statFuBusy::SimdUnitStrideSegmentedLoad            0      0.00%    100.00% # attempts to use FU when none available (Count)
system.cpu.statFuBusy::SimdUnitStrideSegmentedStore            0      0.00%    100.00% # attempts to use FU when none available (Count)
system.cpu.statFuBusy::SimdExt                      0      0.00%    100.00% # attempts to use FU when none available (Count)
system.cpu.statFuBusy::SimdFloatExt                 0      0.00%    100.00% # attempts to use FU when none available (Count)
system.cpu.statFuBusy::SimdConfig                   0      0.00%    100.00% # attempts to use FU when none available (Count)
system.cpu.statIssuedInstType_0::No_OpClass         7286      0.01%      0.01% # Number of instructions issued per FU type, per thread (Count)
system.cpu.statIssuedInstType_0::IntAlu      81653594     59.10%     59.10% # Number of instructions issued per FU type, per thread (Count)
system.cpu.statIssuedInstType_0::IntMult       751334      0.54%     59.65% # Number of instructions issued per FU type, per thread (Count)
system.cpu.statIssuedInstType_0::IntDiv          4155      0.00%     59.65% # Number of instructions issued per FU type, per thread (Count)
system.cpu.statIssuedInstType_0::FloatAdd      3385140      2.45%     62.10% # Number of instructions issued per FU type, per thread (Count)
system.cpu.statIssuedInstType_0::FloatCmp            0      0.00%     62.10% # Number of instructions issued per FU type, per thread (Count)
system.cpu.statIssuedInstType_0::FloatCvt          502      0.00%     62.10% # Number of instructions issued per FU type, per thread (Count)
system.cpu.statIssuedInstType_0::FloatMult            0      0.00%     62.10% # Number of instructions issued per FU type, per thread (Count)
system.cpu.statIssuedInstType_0::FloatMultAcc            0      0.00%     62.10% # Number of instructions issued per FU type, per thread (Count)
system.cpu.statIssuedInstType_0::FloatDiv            0      0.00%     62.10% # Number of instructions issued per FU type, per thread (Count)
system.cpu.statIssuedInstType_0::FloatMisc            0      0.00%     62.10% # Number of instructions issued per FU type, per thread (Count)
system.cpu.statIssuedInstType_0::FloatSqrt            0      0.00%     62.10% # Number of instructions issued per FU type, per thread (Count)
system.cpu.statIssuedInstType_0::SimdAdd           34      0.00%     62.10% # Number of instructions issued per FU type, per thread (Count)
system.cpu.statIssuedInstType_0::SimdAddAcc            0      0.00%     62.10% # Number of instructions issued per FU type, per thread (Count)
system.cpu.statIssuedInstType_0::SimdAlu      1503656      1.09%     63.19% # Number of instructions issued per FU type, per thread (Count)
system.cpu.statIssuedInstType_0::SimdCmp            0      0.00%     63.19% # Number of instructions issued per FU type, per thread (Count)
system.cpu.statIssuedInstType_0::SimdCvt          407      0.00%     63.19% # Number of instructions issued per FU type, per thread (Count)
system.cpu.statIssuedInstType_0::SimdMisc      1127937      0.82%     64.01% # Number of instructions issued per FU type, per thread (Count)
system.cpu.statIssuedInstType_0::SimdMult            0      0.00%     64.01% # Number of instructions issued per FU type, per thread (Count)
system.cpu.statIssuedInstType_0::SimdMultAcc            0      0.00%     64.01% # Number of instructions issued per FU type, per thread (Count)
system.cpu.statIssuedInstType_0::SimdMatMultAcc            0      0.00%     64.01% # Number of instructions issued per FU type, per thread (Count)
system.cpu.statIssuedInstType_0::SimdShift           34      0.00%     64.01% # Number of instructions issued per FU type, per thread (Count)
system.cpu.statIssuedInstType_0::SimdShiftAcc            0      0.00%     64.01% # Number of instructions issued per FU type, per thread (Count)
system.cpu.statIssuedInstType_0::SimdDiv            0      0.00%     64.01% # Number of instructions issued per FU type, per thread (Count)
system.cpu.statIssuedInstType_0::SimdSqrt            0      0.00%     64.01% # Number of instructions issued per FU type, per thread (Count)
system.cpu.statIssuedInstType_0::SimdFloatAdd       751186      0.54%     64.55% # Number of instructions issued per FU type, per thread (Count)
system.cpu.statIssuedInstType_0::SimdFloatAlu            0      0.00%     64.55% # Number of instructions issued per FU type, per thread (Count)
system.cpu.statIssuedInstType_0::SimdFloatCmp            0      0.00%     64.55% # Number of instructions issued per FU type, per thread (Count)
system.cpu.statIssuedInstType_0::SimdFloatCvt      1503542      1.09%     65.64% # Number of instructions issued per FU type, per thread (Count)
system.cpu.statIssuedInstType_0::SimdFloatDiv       375553      0.27%     65.91% # Number of instructions issued per FU type, per thread (Count)
system.cpu.statIssuedInstType_0::SimdFloatMisc            0      0.00%     65.91% # Number of instructions issued per FU type, per thread (Count)
system.cpu.statIssuedInstType_0::SimdFloatMult       375970      0.27%     66.18% # Number of instructions issued per FU type, per thread (Count)
system.cpu.statIssuedInstType_0::SimdFloatMultAcc            0      0.00%     66.18% # Number of instructions issued per FU type, per thread (Count)
system.cpu.statIssuedInstType_0::SimdFloatMatMultAcc            0      0.00%     66.18% # Number of instructions issued per FU type, per thread (Count)
system.cpu.statIssuedInstType_0::SimdFloatSqrt            0      0.00%     66.18% # Number of instructions issued per FU type, per thread (Count)
system.cpu.statIssuedInstType_0::SimdReduceAdd            0      0.00%     66.18% # Number of instructions issued per FU type, per thread (Count)
system.cpu.statIssuedInstType_0::SimdReduceAlu            0      0.00%     66.18% # Number of instructions issued per FU type, per thread (Count)
system.cpu.statIssuedInstType_0::SimdReduceCmp            0      0.00%     66.18% # Number of instructions issued per FU type, per thread (Count)
system.cpu.statIssuedInstType_0::SimdFloatReduceAdd            0      0.00%     66.18% # Number of instructions issued per FU type, per thread (Count)
system.cpu.statIssuedInstType_0::SimdFloatReduceCmp            0      0.00%     66.18% # Number of instructions issued per FU type, per thread (Count)
system.cpu.statIssuedInstType_0::SimdAes            0      0.00%     66.18% # Number of instructions issued per FU type, per thread (Count)
system.cpu.statIssuedInstType_0::SimdAesMix            0      0.00%     66.18% # Number of instructions issued per FU type, per thread (Count)
system.cpu.statIssuedInstType_0::SimdSha1Hash            0      0.00%     66.18% # Number of instructions issued per FU type, per thread (Count)
system.cpu.statIssuedInstType_0::SimdSha1Hash2            0      0.00%     66.18% # Number of instructions issued per FU type, per thread (Count)
system.cpu.statIssuedInstType_0::SimdSha256Hash            0      0.00%     66.18% # Number of instructions issued per FU type, per thread (Count)
system.cpu.statIssuedInstType_0::SimdSha256Hash2            0      0.00%     66.18% # Number of instructions issued per FU type, per thread (Count)
system.cpu.statIssuedInstType_0::SimdShaSigma2            0      0.00%     66.18% # Number of instructions issued per FU type, per thread (Count)
system.cpu.statIssuedInstType_0::SimdShaSigma3            0      0.00%     66.18% # Number of instructions issued per FU type, per thread (Count)
system.cpu.statIssuedInstType_0::SimdPredAlu            0      0.00%     66.18% # Number of instructions issued per FU type, per thread (Count)
system.cpu.statIssuedInstType_0::Matrix             0      0.00%     66.18% # Number of instructions issued per FU type, per thread (Count)
system.cpu.statIssuedInstType_0::MatrixMov            0      0.00%     66.18% # Number of instructions issued per FU type, per thread (Count)
system.cpu.statIssuedInstType_0::MatrixOP            0      0.00%     66.18% # Number of instructions issued per FU type, per thread (Count)
system.cpu.statIssuedInstType_0::MemRead     29422769     21.30%     87.48% # Number of instructions issued per FU type, per thread (Count)
system.cpu.statIssuedInstType_0::MemWrite     12034490      8.71%     96.19% # Number of instructions issued per FU type, per thread (Count)
system.cpu.statIssuedInstType_0::FloatMemRead      3761926      2.72%     98.91% # Number of instructions issued per FU type, per thread (Count)
system.cpu.statIssuedInstType_0::FloatMemWrite      1505732      1.09%    100.00% # Number of instructions issued per FU type, per thread (Count)
system.cpu.statIssuedInstType_0::IprAccess            0      0.00%    100.00% # Number of instructions issued per FU type, per thread (Count)
system.cpu.statIssuedInstType_0::InstPrefetch            0      0.00%    100.00% # Number of instructions issued per FU type, per thread (Count)
system.cpu.statIssuedInstType_0::SimdUnitStrideLoad            0      0.00%    100.00% # Number of instructions issued per FU type, per thread (Count)
system.cpu.statIssuedInstType_0::SimdUnitStrideStore            0      0.00%    100.00% # Number of instructions issued per FU type, per thread (Count)
system.cpu.statIssuedInstType_0::SimdUnitStrideMaskLoad            0      0.00%    100.00% # Number of instructions issued per FU type, per thread (Count)
system.cpu.statIssuedInstType_0::SimdUnitStrideMaskStore            0      0.00%    100.00% # Number of instructions issued per FU type, per thread (Count)
system.cpu.statIssuedInstType_0::SimdStridedLoad            0      0.00%    100.00% # Number of instructions issued per FU type, per thread (Count)
system.cpu.statIssuedInstType_0::SimdStridedStore            0      0.00%    100.00% # Number of instructions issued per FU type, per thread (Count)
system.cpu.statIssuedInstType_0::SimdIndexedLoad            0      0.00%    100.00% # Number of instructions issued per FU type, per thread (Count)
system.cpu.statIssuedInstType_0::SimdIndexedStore            0      0.00%    100.00% # Number of instructions issued per FU type, per thread (Count)
system.cpu.statIssuedInstType_0::SimdWholeRegisterLoad            0      0.00%    100.00% # Number of instructions issued per FU type, per thread (Count)
system.cpu.statIssuedInstType_0::SimdWholeRegisterStore            0      0.00%    100.00% # Number of instructions issued per FU type, per thread (Count)
system.cpu.statIssuedInstType_0::SimdUnitStrideFaultOnlyFirstLoad            0      0.00%    100.00% # Number of instructions issued per FU type, per thread (Count)
system.cpu.statIssuedInstType_0::SimdUnitStrideSegmentedLoad            0      0.00%    100.00% # Number of instructions issued per FU type, per thread (Count)
system.cpu.statIssuedInstType_0::SimdUnitStrideSegmentedStore            0      0.00%    100.00% # Number of instructions issued per FU type, per thread (Count)
system.cpu.statIssuedInstType_0::SimdExt            0      0.00%    100.00% # Number of instructions issued per FU type, per thread (Count)
system.cpu.statIssuedInstType_0::SimdFloatExt            0      0.00%    100.00% # Number of instructions issued per FU type, per thread (Count)
system.cpu.statIssuedInstType_0::SimdConfig            0      0.00%    100.00% # Number of instructions issued per FU type, per thread (Count)
system.cpu.statIssuedInstType_0::total      138165247                       # Number of instructions issued per FU type, per thread (Count)
system.cpu.issueRate                         0.054644                       # Inst issue rate ((Count/Cycle))
system.cpu.fuBusy                             3225596                       # FU busy when requested (Count)
system.cpu.fuBusyRate                        0.023346                       # FU busy rate (busy events/executed inst) ((Count/Count))
system.cpu.intInstQueueReads               2775989684                       # Number of integer instruction queue reads (Count)
system.cpu.intInstQueueWrites               115187745                       # Number of integer instruction queue writes (Count)
system.cpu.intInstQueueWakeupAccesses       114081201                       # Number of integer instruction queue wakeup accesses (Count)
system.cpu.fpInstQueueReads                  28583782                       # Number of floating instruction queue reads (Count)
system.cpu.fpInstQueueWrites                 14299031                       # Number of floating instruction queue writes (Count)
system.cpu.fpInstQueueWakeupAccesses         14291263                       # Number of floating instruction queue wakeup accesses (Count)
system.cpu.vecInstQueueReads                        0                       # Number of vector instruction queue reads (Count)
system.cpu.vecInstQueueWrites                       0                       # Number of vector instruction queue writes (Count)
system.cpu.vecInstQueueWakeupAccesses               0                       # Number of vector instruction queue wakeup accesses (Count)
system.cpu.intAluAccesses                   127091453                       # Number of integer alu accesses (Count)
system.cpu.fpAluAccesses                     14292104                       # Number of floating point alu accesses (Count)
system.cpu.vecAluAccesses                           0                       # Number of vector alu accesses (Count)
system.cpu.numSquashedInsts                     68526                       # Number of squashed instructions skipped in execute (Count)
system.cpu.numSwp                                   0                       # Number of swp insts executed (Count)
system.cpu.timesIdled                            4149                       # Number of times that the entire CPU went into an idle state and unscheduled itself (Count)
system.cpu.idleCycles                         3440394                       # Total number of cycles that the CPU has spent unscheduled due to idling (Cycle)
system.cpu.MemDepUnit__0.insertedLoads       23511797                       # Number of loads inserted to the mem dependence unit. (Count)
system.cpu.MemDepUnit__0.insertedStores      13562224                       # Number of stores inserted to the mem dependence unit. (Count)
system.cpu.MemDepUnit__0.conflictingLoads      6718569                       # Number of conflicting loads. (Count)
system.cpu.MemDepUnit__0.conflictingStores      1695579                       # Number of conflicting stores. (Count)
system.cpu.MemDepUnit__1.insertedLoads              0                       # Number of loads inserted to the mem dependence unit. (Count)
system.cpu.MemDepUnit__1.insertedStores             0                       # Number of stores inserted to the mem dependence unit. (Count)
system.cpu.MemDepUnit__1.conflictingLoads            0                       # Number of conflicting loads. (Count)
system.cpu.MemDepUnit__1.conflictingStores            0                       # Number of conflicting stores. (Count)
system.cpu.MemDepUnit__2.insertedLoads              0                       # Number of loads inserted to the mem dependence unit. (Count)
system.cpu.MemDepUnit__2.insertedStores             0                       # Number of stores inserted to the mem dependence unit. (Count)
system.cpu.MemDepUnit__2.conflictingLoads            0                       # Number of conflicting loads. (Count)
system.cpu.MemDepUnit__2.conflictingStores            0                       # Number of conflicting stores. (Count)
system.cpu.MemDepUnit__3.insertedLoads              0                       # Number of loads inserted to the mem dependence unit. (Count)
system.cpu.MemDepUnit__3.insertedStores             0                       # Number of stores inserted to the mem dependence unit. (Count)
system.cpu.MemDepUnit__3.conflictingLoads            0                       # Number of conflicting loads. (Count)
system.cpu.MemDepUnit__3.conflictingStores            0                       # Number of conflicting stores. (Count)
system.cpu.branchPred.lookups_0::NoBranch            2      0.00%      0.00% # Number of BP lookups (Count)
system.cpu.branchPred.lookups_0::Return       3110900     27.14%     27.14% # Number of BP lookups (Count)
system.cpu.branchPred.lookups_0::CallDirect      3085116     26.91%     54.05% # Number of BP lookups (Count)
system.cpu.branchPred.lookups_0::CallIndirect          620      0.01%     54.05% # Number of BP lookups (Count)
system.cpu.branchPred.lookups_0::DirectCond      4809472     41.95%     96.01% # Number of BP lookups (Count)
system.cpu.branchPred.lookups_0::DirectUncond        74514      0.65%     96.66% # Number of BP lookups (Count)
system.cpu.branchPred.lookups_0::IndirectCond            0      0.00%     96.66% # Number of BP lookups (Count)
system.cpu.branchPred.lookups_0::IndirectUncond       383115      3.34%    100.00% # Number of BP lookups (Count)
system.cpu.branchPred.lookups_0::total       11463739                       # Number of BP lookups (Count)
system.cpu.branchPred.squashes_0::NoBranch            2      0.00%      0.00% # Number of branches that got squashed (completely removed) as an earlier branch was mispredicted. (Count)
system.cpu.branchPred.squashes_0::Return        37821     24.07%     24.07% # Number of branches that got squashed (completely removed) as an earlier branch was mispredicted. (Count)
system.cpu.branchPred.squashes_0::CallDirect        12442      7.92%     31.98% # Number of branches that got squashed (completely removed) as an earlier branch was mispredicted. (Count)
system.cpu.branchPred.squashes_0::CallIndirect          211      0.13%     32.12% # Number of branches that got squashed (completely removed) as an earlier branch was mispredicted. (Count)
system.cpu.branchPred.squashes_0::DirectCond        95313     60.65%     92.77% # Number of branches that got squashed (completely removed) as an earlier branch was mispredicted. (Count)
system.cpu.branchPred.squashes_0::DirectUncond         8640      5.50%     98.26% # Number of branches that got squashed (completely removed) as an earlier branch was mispredicted. (Count)
system.cpu.branchPred.squashes_0::IndirectCond            0      0.00%     98.26% # Number of branches that got squashed (completely removed) as an earlier branch was mispredicted. (Count)
system.cpu.branchPred.squashes_0::IndirectUncond         2727      1.74%    100.00% # Number of branches that got squashed (completely removed) as an earlier branch was mispredicted. (Count)
system.cpu.branchPred.squashes_0::total        157156                       # Number of branches that got squashed (completely removed) as an earlier branch was mispredicted. (Count)
system.cpu.branchPred.corrected_0::NoBranch            1      0.00%      0.00% # Number of branches that got corrected but not yet commited. Branches get corrected by decode or after execute. Also a branch misprediction can be detected out-of-order. Therefore, a corrected branch might not end up beeing committed in case an even earlier branch was mispredicted (Count)
system.cpu.branchPred.corrected_0::Return           26      0.11%      0.11% # Number of branches that got corrected but not yet commited. Branches get corrected by decode or after execute. Also a branch misprediction can be detected out-of-order. Therefore, a corrected branch might not end up beeing committed in case an even earlier branch was mispredicted (Count)
system.cpu.branchPred.corrected_0::CallDirect          862      3.48%      3.59% # Number of branches that got corrected but not yet commited. Branches get corrected by decode or after execute. Also a branch misprediction can be detected out-of-order. Therefore, a corrected branch might not end up beeing committed in case an even earlier branch was mispredicted (Count)
system.cpu.branchPred.corrected_0::CallIndirect          174      0.70%      4.29% # Number of branches that got corrected but not yet commited. Branches get corrected by decode or after execute. Also a branch misprediction can be detected out-of-order. Therefore, a corrected branch might not end up beeing committed in case an even earlier branch was mispredicted (Count)
system.cpu.branchPred.corrected_0::DirectCond        22753     91.91%     96.20% # Number of branches that got corrected but not yet commited. Branches get corrected by decode or after execute. Also a branch misprediction can be detected out-of-order. Therefore, a corrected branch might not end up beeing committed in case an even earlier branch was mispredicted (Count)
system.cpu.branchPred.corrected_0::DirectUncond          612      2.47%     98.67% # Number of branches that got corrected but not yet commited. Branches get corrected by decode or after execute. Also a branch misprediction can be detected out-of-order. Therefore, a corrected branch might not end up beeing committed in case an even earlier branch was mispredicted (Count)
system.cpu.branchPred.corrected_0::IndirectCond            0      0.00%     98.67% # Number of branches that got corrected but not yet commited. Branches get corrected by decode or after execute. Also a branch misprediction can be detected out-of-order. Therefore, a corrected branch might not end up beeing committed in case an even earlier branch was mispredicted (Count)
system.cpu.branchPred.corrected_0::IndirectUncond          329      1.33%    100.00% # Number of branches that got corrected but not yet commited. Branches get corrected by decode or after execute. Also a branch misprediction can be detected out-of-order. Therefore, a corrected branch might not end up beeing committed in case an even earlier branch was mispredicted (Count)
system.cpu.branchPred.corrected_0::total        24757                       # Number of branches that got corrected but not yet commited. Branches get corrected by decode or after execute. Also a branch misprediction can be detected out-of-order. Therefore, a corrected branch might not end up beeing committed in case an even earlier branch was mispredicted (Count)
system.cpu.branchPred.earlyResteers_0::NoBranch            0                       # Number of branches that got redirected after decode. (Count)
system.cpu.branchPred.earlyResteers_0::Return            0                       # Number of branches that got redirected after decode. (Count)
system.cpu.branchPred.earlyResteers_0::CallDirect            0                       # Number of branches that got redirected after decode. (Count)
system.cpu.branchPred.earlyResteers_0::CallIndirect            0                       # Number of branches that got redirected after decode. (Count)
system.cpu.branchPred.earlyResteers_0::DirectCond            0                       # Number of branches that got redirected after decode. (Count)
system.cpu.branchPred.earlyResteers_0::DirectUncond            0                       # Number of branches that got redirected after decode. (Count)
system.cpu.branchPred.earlyResteers_0::IndirectCond            0                       # Number of branches that got redirected after decode. (Count)
system.cpu.branchPred.earlyResteers_0::IndirectUncond            0                       # Number of branches that got redirected after decode. (Count)
system.cpu.branchPred.earlyResteers_0::total            0                       # Number of branches that got redirected after decode. (Count)
system.cpu.branchPred.committed_0::NoBranch            0      0.00%      0.00% # Number of branches finally committed  (Count)
system.cpu.branchPred.committed_0::Return      3073079     27.18%     27.18% # Number of branches finally committed  (Count)
system.cpu.branchPred.committed_0::CallDirect      3072674     27.18%     54.36% # Number of branches finally committed  (Count)
system.cpu.branchPred.committed_0::CallIndirect          409      0.00%     54.36% # Number of branches finally committed  (Count)
system.cpu.branchPred.committed_0::DirectCond      4714158     41.69%     96.05% # Number of branches finally committed  (Count)
system.cpu.branchPred.committed_0::DirectUncond        65874      0.58%     96.64% # Number of branches finally committed  (Count)
system.cpu.branchPred.committed_0::IndirectCond            0      0.00%     96.64% # Number of branches finally committed  (Count)
system.cpu.branchPred.committed_0::IndirectUncond       380388      3.36%    100.00% # Number of branches finally committed  (Count)
system.cpu.branchPred.committed_0::total     11306582                       # Number of branches finally committed  (Count)
system.cpu.branchPred.mispredicted_0::NoBranch            0      0.00%      0.00% # Number of committed branches that were mispredicted. (Count)
system.cpu.branchPred.mispredicted_0::Return           15      0.07%      0.07% # Number of committed branches that were mispredicted. (Count)
system.cpu.branchPred.mispredicted_0::CallDirect          626      2.76%      2.82% # Number of committed branches that were mispredicted. (Count)
system.cpu.branchPred.mispredicted_0::CallIndirect          159      0.70%      3.52% # Number of committed branches that were mispredicted. (Count)
system.cpu.branchPred.mispredicted_0::DirectCond        21335     93.94%     97.46% # Number of committed branches that were mispredicted. (Count)
system.cpu.branchPred.mispredicted_0::DirectUncond          287      1.26%     98.73% # Number of committed branches that were mispredicted. (Count)
system.cpu.branchPred.mispredicted_0::IndirectCond            0      0.00%     98.73% # Number of committed branches that were mispredicted. (Count)
system.cpu.branchPred.mispredicted_0::IndirectUncond          289      1.27%    100.00% # Number of committed branches that were mispredicted. (Count)
system.cpu.branchPred.mispredicted_0::total        22711                       # Number of committed branches that were mispredicted. (Count)
system.cpu.branchPred.targetProvider_0::NoTarget      2438039     21.27%     21.27% # The component providing the target for taken branches (Count)
system.cpu.branchPred.targetProvider_0::BTB      5533138     48.27%     69.53% # The component providing the target for taken branches (Count)
system.cpu.branchPred.targetProvider_0::RAS      3110891     27.14%     96.67% # The component providing the target for taken branches (Count)
system.cpu.branchPred.targetProvider_0::Indirect       381671      3.33%    100.00% # The component providing the target for taken branches (Count)
system.cpu.branchPred.targetProvider_0::total     11463739                       # The component providing the target for taken branches (Count)
system.cpu.branchPred.targetWrong_0::NoBranch        19623     80.23%     80.23% # Number of branches where the target was incorrect or not available at prediction time. (Count)
system.cpu.branchPred.targetWrong_0::Return         4789     19.58%     99.82% # Number of branches where the target was incorrect or not available at prediction time. (Count)
system.cpu.branchPred.targetWrong_0::CallDirect           26      0.11%     99.92% # Number of branches where the target was incorrect or not available at prediction time. (Count)
system.cpu.branchPred.targetWrong_0::CallIndirect           19      0.08%    100.00% # Number of branches where the target was incorrect or not available at prediction time. (Count)
system.cpu.branchPred.targetWrong_0::DirectCond            0      0.00%    100.00% # Number of branches where the target was incorrect or not available at prediction time. (Count)
system.cpu.branchPred.targetWrong_0::DirectUncond            0      0.00%    100.00% # Number of branches where the target was incorrect or not available at prediction time. (Count)
system.cpu.branchPred.targetWrong_0::IndirectCond            0      0.00%    100.00% # Number of branches where the target was incorrect or not available at prediction time. (Count)
system.cpu.branchPred.targetWrong_0::IndirectUncond            0      0.00%    100.00% # Number of branches where the target was incorrect or not available at prediction time. (Count)
system.cpu.branchPred.targetWrong_0::total        24457                       # Number of branches where the target was incorrect or not available at prediction time. (Count)
system.cpu.branchPred.condPredicted           4809474                       # Number of conditional branches predicted (Count)
system.cpu.branchPred.condPredictedTaken      2377845                       # Number of conditional branches predicted as taken (Count)
system.cpu.branchPred.condIncorrect             24757                       # Number of conditional branches incorrect (Count)
system.cpu.branchPred.predTakenBTBMiss           2147                       # Number of branches predicted taken but missed in BTB (Count)
system.cpu.branchPred.NotTakenMispredicted        19943                       # Number branches predicted 'not taken' but turned out to be taken (Count)
system.cpu.branchPred.TakenMispredicted          4814                       # Number branches predicted taken but are actually not taken (Count)
system.cpu.branchPred.BTBLookups             11463739                       # Number of BTB lookups (Count)
system.cpu.branchPred.BTBUpdates                19413                       # Number of BTB updates (Count)
system.cpu.branchPred.BTBHits                 6314355                       # Number of BTB hits (Count)
system.cpu.branchPred.BTBHitRatio            0.550811                       # BTB Hit Ratio (Ratio)
system.cpu.branchPred.BTBMispredicted            2882                       # Number BTB mispredictions. No target found or target wrong (Count)
system.cpu.branchPred.indirectLookups          383735                       # Number of indirect predictor lookups. (Count)
system.cpu.branchPred.indirectHits             381671                       # Number of indirect target hits. (Count)
system.cpu.branchPred.indirectMisses             2064                       # Number of indirect misses. (Count)
system.cpu.branchPred.indirectMispredicted            0                       # Number of mispredicted indirect branches. (Count)
system.cpu.branchPred.btb.lookups::NoBranch            2      0.00%      0.00% # Number of BTB lookups (Count)
system.cpu.branchPred.btb.lookups::Return      3110900     27.14%     27.14% # Number of BTB lookups (Count)
system.cpu.branchPred.btb.lookups::CallDirect      3085116     26.91%     54.05% # Number of BTB lookups (Count)
system.cpu.branchPred.btb.lookups::CallIndirect          620      0.01%     54.05% # Number of BTB lookups (Count)
system.cpu.branchPred.btb.lookups::DirectCond      4809472     41.95%     96.01% # Number of BTB lookups (Count)
system.cpu.branchPred.btb.lookups::DirectUncond        74514      0.65%     96.66% # Number of BTB lookups (Count)
system.cpu.branchPred.btb.lookups::IndirectCond            0      0.00%     96.66% # Number of BTB lookups (Count)
system.cpu.branchPred.btb.lookups::IndirectUncond       383115      3.34%    100.00% # Number of BTB lookups (Count)
system.cpu.branchPred.btb.lookups::total     11463739                       # Number of BTB lookups (Count)
system.cpu.branchPred.btb.misses::NoBranch            2      0.00%      0.00% # Number of BTB misses (Count)
system.cpu.branchPred.btb.misses::Return      3110844     60.41%     60.41% # Number of BTB misses (Count)
system.cpu.branchPred.btb.misses::CallDirect         1249      0.02%     60.44% # Number of BTB misses (Count)
system.cpu.branchPred.btb.misses::CallIndirect          485      0.01%     60.45% # Number of BTB misses (Count)
system.cpu.branchPred.btb.misses::DirectCond      1652851     32.10%     92.54% # Number of BTB misses (Count)
system.cpu.branchPred.btb.misses::DirectUncond          838      0.02%     92.56% # Number of BTB misses (Count)
system.cpu.branchPred.btb.misses::IndirectCond            0      0.00%     92.56% # Number of BTB misses (Count)
system.cpu.branchPred.btb.misses::IndirectUncond       383115      7.44%    100.00% # Number of BTB misses (Count)
system.cpu.branchPred.btb.misses::total       5149384                       # Number of BTB misses (Count)
system.cpu.branchPred.btb.updates::NoBranch            0      0.00%      0.00% # Number of BTB updates (Count)
system.cpu.branchPred.btb.updates::Return            0      0.00%      0.00% # Number of BTB updates (Count)
system.cpu.branchPred.btb.updates::CallDirect          862      4.44%      4.44% # Number of BTB updates (Count)
system.cpu.branchPred.btb.updates::CallIndirect            0      0.00%      4.44% # Number of BTB updates (Count)
system.cpu.branchPred.btb.updates::DirectCond        17939     92.41%     96.85% # Number of BTB updates (Count)
system.cpu.branchPred.btb.updates::DirectUncond          612      3.15%    100.00% # Number of BTB updates (Count)
system.cpu.branchPred.btb.updates::IndirectCond            0      0.00%    100.00% # Number of BTB updates (Count)
system.cpu.branchPred.btb.updates::IndirectUncond            0      0.00%    100.00% # Number of BTB updates (Count)
system.cpu.branchPred.btb.updates::total        19413                       # Number of BTB updates (Count)
system.cpu.branchPred.btb.mispredict::NoBranch            0      0.00%      0.00% # Number of BTB mispredictions. No target found or target wrong. (Count)
system.cpu.branchPred.btb.mispredict::Return            0      0.00%      0.00% # Number of BTB mispredictions. No target found or target wrong. (Count)
system.cpu.branchPred.btb.mispredict::CallDirect          862      4.44%      4.44% # Number of BTB mispredictions. No target found or target wrong. (Count)
system.cpu.branchPred.btb.mispredict::CallIndirect            0      0.00%      4.44% # Number of BTB mispredictions. No target found or target wrong. (Count)
system.cpu.branchPred.btb.mispredict::DirectCond        17939     92.41%     96.85% # Number of BTB mispredictions. No target found or target wrong. (Count)
system.cpu.branchPred.btb.mispredict::DirectUncond          612      3.15%    100.00% # Number of BTB mispredictions. No target found or target wrong. (Count)
system.cpu.branchPred.btb.mispredict::IndirectCond            0      0.00%    100.00% # Number of BTB mispredictions. No target found or target wrong. (Count)
system.cpu.branchPred.btb.mispredict::IndirectUncond            0      0.00%    100.00% # Number of BTB mispredictions. No target found or target wrong. (Count)
system.cpu.branchPred.btb.mispredict::total        19413                       # Number of BTB mispredictions. No target found or target wrong. (Count)
system.cpu.branchPred.btb.power_state.pwrStateResidencyTicks::UNDEFINED 791406558667                       # Cumulative time (in ticks) in various power states (Tick)
system.cpu.branchPred.indirectBranchPred.lookups       383735                       # Number of lookups (Count)
system.cpu.branchPred.indirectBranchPred.hits       381671                       # Number of hits of a tag (Count)
system.cpu.branchPred.indirectBranchPred.misses         2064                       # Number of misses (Count)
system.cpu.branchPred.indirectBranchPred.targetRecords          503                       # Number of targets that where recorded/installed in the cache (Count)
system.cpu.branchPred.indirectBranchPred.indirectRecords       384238                       # Number of indirect branches/calls recorded in the indirect hist (Count)
system.cpu.branchPred.indirectBranchPred.speculativeOverflows            0                       # Number of times more than the allowed capacity for speculative branches/calls where in flight and destroy the path history (Count)
system.cpu.branchPred.ras.pushes              3123557                       # Number of times a PC was pushed onto the RAS (Count)
system.cpu.branchPred.ras.pops                3123553                       # Number of times a PC was poped from the RAS (Count)
system.cpu.branchPred.ras.squashes              50474                       # Number of times the stack operation was squashed due to wrong speculation. (Count)
system.cpu.branchPred.ras.used                3073079                       # Number of times the RAS is the provider (Count)
system.cpu.branchPred.ras.correct             3073064                       # Number of times the RAS is the provider and the prediction is correct (Count)
system.cpu.branchPred.ras.incorrect                15                       # Number of times the RAS is the provider and the prediction is wrong (Count)
system.cpu.commit.commitSquashedInsts          803833                       # The number of squashed insts skipped by commit (Count)
system.cpu.commit.commitNonSpecStalls             675                       # The number of times commit has been forced to stall to communicate backwards (Count)
system.cpu.commit.branchMispredicts             24675                       # The number of times a branch was mispredicted (Count)
system.cpu.commit.numCommittedDist::samples   2524892587                       # Number of insts commited each cycle (Count)
system.cpu.commit.numCommittedDist::mean     0.050640                       # Number of insts commited each cycle (Count)
system.cpu.commit.numCommittedDist::stdev     0.605330                       # Number of insts commited each cycle (Count)
system.cpu.commit.numCommittedDist::underflows            0      0.00%      0.00% # Number of insts commited each cycle (Count)
system.cpu.commit.numCommittedDist::0      2503855349     99.17%     99.17% # Number of insts commited each cycle (Count)
system.cpu.commit.numCommittedDist::1         1878809      0.07%     99.24% # Number of insts commited each cycle (Count)
system.cpu.commit.numCommittedDist::2         1801594      0.07%     99.31% # Number of insts commited each cycle (Count)
system.cpu.commit.numCommittedDist::3         2476885      0.10%     99.41% # Number of insts commited each cycle (Count)
system.cpu.commit.numCommittedDist::4          615106      0.02%     99.44% # Number of insts commited each cycle (Count)
system.cpu.commit.numCommittedDist::5          242838      0.01%     99.44% # Number of insts commited each cycle (Count)
system.cpu.commit.numCommittedDist::6          242230      0.01%     99.45% # Number of insts commited each cycle (Count)
system.cpu.commit.numCommittedDist::7          417305      0.02%     99.47% # Number of insts commited each cycle (Count)
system.cpu.commit.numCommittedDist::8        13362471      0.53%    100.00% # Number of insts commited each cycle (Count)
system.cpu.commit.numCommittedDist::overflows            0      0.00%    100.00% # Number of insts commited each cycle (Count)
system.cpu.commit.numCommittedDist::min_value            0                       # Number of insts commited each cycle (Count)
system.cpu.commit.numCommittedDist::max_value            8                       # Number of insts commited each cycle (Count)
system.cpu.commit.numCommittedDist::total   2524892587                       # Number of insts commited each cycle (Count)
system.cpu.commit.amos                              0                       # Number of atomic instructions committed (Count)
system.cpu.commit.membars                         306                       # Number of memory barriers committed (Count)
system.cpu.commit.functionCalls               3073083                       # Number of function calls committed. (Count)
system.cpu.commit.committedInstType_0::No_OpClass         4353      0.00%      0.00% # Class of committed instruction (Count)
system.cpu.commit.committedInstType_0::IntAlu     81187170     63.50%     63.50% # Class of committed instruction (Count)
system.cpu.commit.committedInstType_0::IntMult       751268      0.59%     64.09% # Class of committed instruction (Count)
system.cpu.commit.committedInstType_0::IntDiv         3550      0.00%     64.09% # Class of committed instruction (Count)
system.cpu.commit.committedInstType_0::FloatAdd      3384015      2.65%     66.74% # Class of committed instruction (Count)
system.cpu.commit.committedInstType_0::FloatCmp            0      0.00%     66.74% # Class of committed instruction (Count)
system.cpu.commit.committedInstType_0::FloatCvt          384      0.00%     66.74% # Class of committed instruction (Count)
system.cpu.commit.committedInstType_0::FloatMult            0      0.00%     66.74% # Class of committed instruction (Count)
system.cpu.commit.committedInstType_0::FloatMultAcc            0      0.00%     66.74% # Class of committed instruction (Count)
system.cpu.commit.committedInstType_0::FloatDiv            0      0.00%     66.74% # Class of committed instruction (Count)
system.cpu.commit.committedInstType_0::FloatMisc            0      0.00%     66.74% # Class of committed instruction (Count)
system.cpu.commit.committedInstType_0::FloatSqrt            0      0.00%     66.74% # Class of committed instruction (Count)
system.cpu.commit.committedInstType_0::SimdAdd           20      0.00%     66.74% # Class of committed instruction (Count)
system.cpu.commit.committedInstType_0::SimdAddAcc            0      0.00%     66.74% # Class of committed instruction (Count)
system.cpu.commit.committedInstType_0::SimdAlu      1503244      1.18%     67.91% # Class of committed instruction (Count)
system.cpu.commit.committedInstType_0::SimdCmp            0      0.00%     67.91% # Class of committed instruction (Count)
system.cpu.commit.committedInstType_0::SimdCvt          298      0.00%     67.91% # Class of committed instruction (Count)
system.cpu.commit.committedInstType_0::SimdMisc      1127767      0.88%     68.79% # Class of committed instruction (Count)
system.cpu.commit.committedInstType_0::SimdMult            0      0.00%     68.79% # Class of committed instruction (Count)
system.cpu.commit.committedInstType_0::SimdMultAcc            0      0.00%     68.79% # Class of committed instruction (Count)
system.cpu.commit.committedInstType_0::SimdMatMultAcc            0      0.00%     68.79% # Class of committed instruction (Count)
system.cpu.commit.committedInstType_0::SimdShift           30      0.00%     68.79% # Class of committed instruction (Count)
system.cpu.commit.committedInstType_0::SimdShiftAcc            0      0.00%     68.79% # Class of committed instruction (Count)
system.cpu.commit.committedInstType_0::SimdDiv            0      0.00%     68.79% # Class of committed instruction (Count)
system.cpu.commit.committedInstType_0::SimdSqrt            0      0.00%     68.79% # Class of committed instruction (Count)
system.cpu.commit.committedInstType_0::SimdFloatAdd       751104      0.59%     69.38% # Class of committed instruction (Count)
system.cpu.commit.committedInstType_0::SimdFloatAlu            0      0.00%     69.38% # Class of committed instruction (Count)
system.cpu.commit.committedInstType_0::SimdFloatCmp            0      0.00%     69.38% # Class of committed instruction (Count)
system.cpu.commit.committedInstType_0::SimdFloatCvt      1503360      1.18%     70.56% # Class of committed instruction (Count)
system.cpu.commit.committedInstType_0::SimdFloatDiv       375552      0.29%     70.85% # Class of committed instruction (Count)
system.cpu.commit.committedInstType_0::SimdFloatMisc            0      0.00%     70.85% # Class of committed instruction (Count)
system.cpu.commit.committedInstType_0::SimdFloatMult       375936      0.29%     71.15% # Class of committed instruction (Count)
system.cpu.commit.committedInstType_0::SimdFloatMultAcc            0      0.00%     71.15% # Class of committed instruction (Count)
system.cpu.commit.committedInstType_0::SimdFloatMatMultAcc            0      0.00%     71.15% # Class of committed instruction (Count)
system.cpu.commit.committedInstType_0::SimdFloatSqrt            0      0.00%     71.15% # Class of committed instruction (Count)
system.cpu.commit.committedInstType_0::SimdReduceAdd            0      0.00%     71.15% # Class of committed instruction (Count)
system.cpu.commit.committedInstType_0::SimdReduceAlu            0      0.00%     71.15% # Class of committed instruction (Count)
system.cpu.commit.committedInstType_0::SimdReduceCmp            0      0.00%     71.15% # Class of committed instruction (Count)
system.cpu.commit.committedInstType_0::SimdFloatReduceAdd            0      0.00%     71.15% # Class of committed instruction (Count)
system.cpu.commit.committedInstType_0::SimdFloatReduceCmp            0      0.00%     71.15% # Class of committed instruction (Count)
system.cpu.commit.committedInstType_0::SimdAes            0      0.00%     71.15% # Class of committed instruction (Count)
system.cpu.commit.committedInstType_0::SimdAesMix            0      0.00%     71.15% # Class of committed instruction (Count)
system.cpu.commit.committedInstType_0::SimdSha1Hash            0      0.00%     71.15% # Class of committed instruction (Count)
system.cpu.commit.committedInstType_0::SimdSha1Hash2            0      0.00%     71.15% # Class of committed instruction (Count)
system.cpu.commit.committedInstType_0::SimdSha256Hash            0      0.00%     71.15% # Class of committed instruction (Count)
system.cpu.commit.committedInstType_0::SimdSha256Hash2            0      0.00%     71.15% # Class of committed instruction (Count)
system.cpu.commit.committedInstType_0::SimdShaSigma2            0      0.00%     71.15% # Class of committed instruction (Count)
system.cpu.commit.committedInstType_0::SimdShaSigma3            0      0.00%     71.15% # Class of committed instruction (Count)
system.cpu.commit.committedInstType_0::SimdPredAlu            0      0.00%     71.15% # Class of committed instruction (Count)
system.cpu.commit.committedInstType_0::Matrix            0      0.00%     71.15% # Class of committed instruction (Count)
system.cpu.commit.committedInstType_0::MatrixMov            0      0.00%     71.15% # Class of committed instruction (Count)
system.cpu.commit.committedInstType_0::MatrixOP            0      0.00%     71.15% # Class of committed instruction (Count)
system.cpu.commit.committedInstType_0::MemRead     19629840     15.35%     86.50% # Class of committed instruction (Count)
system.cpu.commit.committedInstType_0::MemWrite     11997170      9.38%     95.88% # Class of committed instruction (Count)
system.cpu.commit.committedInstType_0::FloatMemRead      3760816      2.94%     98.82% # Class of committed instruction (Count)
system.cpu.commit.committedInstType_0::FloatMemWrite      1505672      1.18%    100.00% # Class of committed instruction (Count)
system.cpu.commit.committedInstType_0::IprAccess            0      0.00%    100.00% # Class of committed instruction (Count)
system.cpu.commit.committedInstType_0::InstPrefetch            0      0.00%    100.00% # Class of committed instruction (Count)
system.cpu.commit.committedInstType_0::SimdUnitStrideLoad            0      0.00%    100.00% # Class of committed instruction (Count)
system.cpu.commit.committedInstType_0::SimdUnitStrideStore            0      0.00%    100.00% # Class of committed instruction (Count)
system.cpu.commit.committedInstType_0::SimdUnitStrideMaskLoad            0      0.00%    100.00% # Class of committed instruction (Count)
system.cpu.commit.committedInstType_0::SimdUnitStrideMaskStore            0      0.00%    100.00% # Class of committed instruction (Count)
system.cpu.commit.committedInstType_0::SimdStridedLoad            0      0.00%    100.00% # Class of committed instruction (Count)
system.cpu.commit.committedInstType_0::SimdStridedStore            0      0.00%    100.00% # Class of committed instruction (Count)
system.cpu.commit.committedInstType_0::SimdIndexedLoad            0      0.00%    100.00% # Class of committed instruction (Count)
system.cpu.commit.committedInstType_0::SimdIndexedStore            0      0.00%    100.00% # Class of committed instruction (Count)
system.cpu.commit.committedInstType_0::SimdWholeRegisterLoad            0      0.00%    100.00% # Class of committed instruction (Count)
system.cpu.commit.committedInstType_0::SimdWholeRegisterStore            0      0.00%    100.00% # Class of committed instruction (Count)
system.cpu.commit.committedInstType_0::SimdUnitStrideFaultOnlyFirstLoad            0      0.00%    100.00% # Class of committed instruction (Count)
system.cpu.commit.committedInstType_0::SimdUnitStrideSegmentedLoad            0      0.00%    100.00% # Class of committed instruction (Count)
system.cpu.commit.committedInstType_0::SimdUnitStrideSegmentedStore            0      0.00%    100.00% # Class of committed instruction (Count)
system.cpu.commit.committedInstType_0::SimdExt            0      0.00%    100.00% # Class of committed instruction (Count)
system.cpu.commit.committedInstType_0::SimdFloatExt            0      0.00%    100.00% # Class of committed instruction (Count)
system.cpu.commit.committedInstType_0::SimdConfig            0      0.00%    100.00% # Class of committed instruction (Count)
system.cpu.commit.committedInstType_0::total    127861549                       # Class of committed instruction (Count)
system.cpu.commit.commitEligibleSamples      13362471                       # number cycles where commit BW limit reached (Cycle)
system.cpu.commitStats0.numInsts             70170045                       # Number of instructions committed (thread level) (Count)
system.cpu.commitStats0.numOps              127861549                       # Number of ops (including micro ops) committed (thread level) (Count)
system.cpu.commitStats0.numInstsNotNOP       70170045                       # Number of instructions committed excluding NOPs or prefetches (Count)
system.cpu.commitStats0.numOpsNotNOP        127861549                       # Number of Ops (including micro ops) Simulated (Count)
system.cpu.commitStats0.cpi                 36.033260                       # CPI: cycles per instruction (thread level) ((Cycle/Count))
system.cpu.commitStats0.ipc                  0.027752                       # IPC: instructions per cycle (thread level) ((Count/Cycle))
system.cpu.commitStats0.numMemRefs           36893498                       # Number of memory references committed (Count)
system.cpu.commitStats0.numFpInsts           14288237                       # Number of float instructions (Count)
system.cpu.commitStats0.numIntInsts         119932969                       # Number of integer instructions (Count)
system.cpu.commitStats0.numLoadInsts         23390656                       # Number of load instructions (Count)
system.cpu.commitStats0.numStoreInsts        13502842                       # Number of store instructions (Count)
system.cpu.commitStats0.numVecInsts                 0                       # Number of vector instructions (Count)
system.cpu.commitStats0.committedInstType::No_OpClass         4353      0.00%      0.00% # Class of committed instruction. (Count)
system.cpu.commitStats0.committedInstType::IntAlu     81187170     63.50%     63.50% # Class of committed instruction. (Count)
system.cpu.commitStats0.committedInstType::IntMult       751268      0.59%     64.09% # Class of committed instruction. (Count)
system.cpu.commitStats0.committedInstType::IntDiv         3550      0.00%     64.09% # Class of committed instruction. (Count)
system.cpu.commitStats0.committedInstType::FloatAdd      3384015      2.65%     66.74% # Class of committed instruction. (Count)
system.cpu.commitStats0.committedInstType::FloatCmp            0      0.00%     66.74% # Class of committed instruction. (Count)
system.cpu.commitStats0.committedInstType::FloatCvt          384      0.00%     66.74% # Class of committed instruction. (Count)
system.cpu.commitStats0.committedInstType::FloatMult            0      0.00%     66.74% # Class of committed instruction. (Count)
system.cpu.commitStats0.committedInstType::FloatMultAcc            0      0.00%     66.74% # Class of committed instruction. (Count)
system.cpu.commitStats0.committedInstType::FloatDiv            0      0.00%     66.74% # Class of committed instruction. (Count)
system.cpu.commitStats0.committedInstType::FloatMisc            0      0.00%     66.74% # Class of committed instruction. (Count)
system.cpu.commitStats0.committedInstType::FloatSqrt            0      0.00%     66.74% # Class of committed instruction. (Count)
system.cpu.commitStats0.committedInstType::SimdAdd           20      0.00%     66.74% # Class of committed instruction. (Count)
system.cpu.commitStats0.committedInstType::SimdAddAcc            0      0.00%     66.74% # Class of committed instruction. (Count)
system.cpu.commitStats0.committedInstType::SimdAlu      1503244      1.18%     67.91% # Class of committed instruction. (Count)
system.cpu.commitStats0.committedInstType::SimdCmp            0      0.00%     67.91% # Class of committed instruction. (Count)
system.cpu.commitStats0.committedInstType::SimdCvt          298      0.00%     67.91% # Class of committed instruction. (Count)
system.cpu.commitStats0.committedInstType::SimdMisc      1127767      0.88%     68.79% # Class of committed instruction. (Count)
system.cpu.commitStats0.committedInstType::SimdMult            0      0.00%     68.79% # Class of committed instruction. (Count)
system.cpu.commitStats0.committedInstType::SimdMultAcc            0      0.00%     68.79% # Class of committed instruction. (Count)
system.cpu.commitStats0.committedInstType::SimdMatMultAcc            0      0.00%     68.79% # Class of committed instruction. (Count)
system.cpu.commitStats0.committedInstType::SimdShift           30      0.00%     68.79% # Class of committed instruction. (Count)
system.cpu.commitStats0.committedInstType::SimdShiftAcc            0      0.00%     68.79% # Class of committed instruction. (Count)
system.cpu.commitStats0.committedInstType::SimdDiv            0      0.00%     68.79% # Class of committed instruction. (Count)
system.cpu.commitStats0.committedInstType::SimdSqrt            0      0.00%     68.79% # Class of committed instruction. (Count)
system.cpu.commitStats0.committedInstType::SimdFloatAdd       751104      0.59%     69.38% # Class of committed instruction. (Count)
system.cpu.commitStats0.committedInstType::SimdFloatAlu            0      0.00%     69.38% # Class of committed instruction. (Count)
system.cpu.commitStats0.committedInstType::SimdFloatCmp            0      0.00%     69.38% # Class of committed instruction. (Count)
system.cpu.commitStats0.committedInstType::SimdFloatCvt      1503360      1.18%     70.56% # Class of committed instruction. (Count)
system.cpu.commitStats0.committedInstType::SimdFloatDiv       375552      0.29%     70.85% # Class of committed instruction. (Count)
system.cpu.commitStats0.committedInstType::SimdFloatMisc            0      0.00%     70.85% # Class of committed instruction. (Count)
system.cpu.commitStats0.committedInstType::SimdFloatMult       375936      0.29%     71.15% # Class of committed instruction. (Count)
system.cpu.commitStats0.committedInstType::SimdFloatMultAcc            0      0.00%     71.15% # Class of committed instruction. (Count)
system.cpu.commitStats0.committedInstType::SimdFloatMatMultAcc            0      0.00%     71.15% # Class of committed instruction. (Count)
system.cpu.commitStats0.committedInstType::SimdFloatSqrt            0      0.00%     71.15% # Class of committed instruction. (Count)
system.cpu.commitStats0.committedInstType::SimdReduceAdd            0      0.00%     71.15% # Class of committed instruction. (Count)
system.cpu.commitStats0.committedInstType::SimdReduceAlu            0      0.00%     71.15% # Class of committed instruction. (Count)
system.cpu.commitStats0.committedInstType::SimdReduceCmp            0      0.00%     71.15% # Class of committed instruction. (Count)
system.cpu.commitStats0.committedInstType::SimdFloatReduceAdd            0      0.00%     71.15% # Class of committed instruction. (Count)
system.cpu.commitStats0.committedInstType::SimdFloatReduceCmp            0      0.00%     71.15% # Class of committed instruction. (Count)
system.cpu.commitStats0.committedInstType::SimdAes            0      0.00%     71.15% # Class of committed instruction. (Count)
system.cpu.commitStats0.committedInstType::SimdAesMix            0      0.00%     71.15% # Class of committed instruction. (Count)
system.cpu.commitStats0.committedInstType::SimdSha1Hash            0      0.00%     71.15% # Class of committed instruction. (Count)
system.cpu.commitStats0.committedInstType::SimdSha1Hash2            0      0.00%     71.15% # Class of committed instruction. (Count)
system.cpu.commitStats0.committedInstType::SimdSha256Hash            0      0.00%     71.15% # Class of committed instruction. (Count)
system.cpu.commitStats0.committedInstType::SimdSha256Hash2            0      0.00%     71.15% # Class of committed instruction. (Count)
system.cpu.commitStats0.committedInstType::SimdShaSigma2            0      0.00%     71.15% # Class of committed instruction. (Count)
system.cpu.commitStats0.committedInstType::SimdShaSigma3            0      0.00%     71.15% # Class of committed instruction. (Count)
system.cpu.commitStats0.committedInstType::SimdPredAlu            0      0.00%     71.15% # Class of committed instruction. (Count)
system.cpu.commitStats0.committedInstType::Matrix            0      0.00%     71.15% # Class of committed instruction. (Count)
system.cpu.commitStats0.committedInstType::MatrixMov            0      0.00%     71.15% # Class of committed instruction. (Count)
system.cpu.commitStats0.committedInstType::MatrixOP            0      0.00%     71.15% # Class of committed instruction. (Count)
system.cpu.commitStats0.committedInstType::MemRead     19629840     15.35%     86.50% # Class of committed instruction. (Count)
system.cpu.commitStats0.committedInstType::MemWrite     11997170      9.38%     95.88% # Class of committed instruction. (Count)
system.cpu.commitStats0.committedInstType::FloatMemRead      3760816      2.94%     98.82% # Class of committed instruction. (Count)
system.cpu.commitStats0.committedInstType::FloatMemWrite      1505672      1.18%    100.00% # Class of committed instruction. (Count)
system.cpu.commitStats0.committedInstType::IprAccess            0      0.00%    100.00% # Class of committed instruction. (Count)
system.cpu.commitStats0.committedInstType::InstPrefetch            0      0.00%    100.00% # Class of committed instruction. (Count)
system.cpu.commitStats0.committedInstType::SimdUnitStrideLoad            0      0.00%    100.00% # Class of committed instruction. (Count)
system.cpu.commitStats0.committedInstType::SimdUnitStrideStore            0      0.00%    100.00% # Class of committed instruction. (Count)
system.cpu.commitStats0.committedInstType::SimdUnitStrideMaskLoad            0      0.00%    100.00% # Class of committed instruction. (Count)
system.cpu.commitStats0.committedInstType::SimdUnitStrideMaskStore            0      0.00%    100.00% # Class of committed instruction. (Count)
system.cpu.commitStats0.committedInstType::SimdStridedLoad            0      0.00%    100.00% # Class of committed instruction. (Count)
system.cpu.commitStats0.committedInstType::SimdStridedStore            0      0.00%    100.00% # Class of committed instruction. (Count)
system.cpu.commitStats0.committedInstType::SimdIndexedLoad            0      0.00%    100.00% # Class of committed instruction. (Count)
system.cpu.commitStats0.committedInstType::SimdIndexedStore            0      0.00%    100.00% # Class of committed instruction. (Count)
system.cpu.commitStats0.committedInstType::SimdWholeRegisterLoad            0      0.00%    100.00% # Class of committed instruction. (Count)
system.cpu.commitStats0.committedInstType::SimdWholeRegisterStore            0      0.00%    100.00% # Class of committed instruction. (Count)
system.cpu.commitStats0.committedInstType::SimdUnitStrideFaultOnlyFirstLoad            0      0.00%    100.00% # Class of committed instruction. (Count)
system.cpu.commitStats0.committedInstType::SimdUnitStrideSegmentedLoad            0      0.00%    100.00% # Class of committed instruction. (Count)
system.cpu.commitStats0.committedInstType::SimdUnitStrideSegmentedStore            0      0.00%    100.00% # Class of committed instruction. (Count)
system.cpu.commitStats0.committedInstType::SimdExt            0      0.00%    100.00% # Class of committed instruction. (Count)
system.cpu.commitStats0.committedInstType::SimdFloatExt            0      0.00%    100.00% # Class of committed instruction. (Count)
system.cpu.commitStats0.committedInstType::SimdConfig            0      0.00%    100.00% # Class of committed instruction. (Count)
system.cpu.commitStats0.committedInstType::total    127861549                       # Class of committed instruction. (Count)
system.cpu.commitStats0.committedControl::IsControl     11306582                       # Class of control type instructions committed (Count)
system.cpu.commitStats0.committedControl::IsDirectControl      7852706                       # Class of control type instructions committed (Count)
system.cpu.commitStats0.committedControl::IsIndirectControl      3453876                       # Class of control type instructions committed (Count)
system.cpu.commitStats0.committedControl::IsCondControl      4714158                       # Class of control type instructions committed (Count)
system.cpu.commitStats0.committedControl::IsUncondControl      6592424                       # Class of control type instructions committed (Count)
system.cpu.commitStats0.committedControl::IsCall      3073083                       # Class of control type instructions committed (Count)
system.cpu.commitStats0.committedControl::IsReturn      3073079                       # Class of control type instructions committed (Count)
system.cpu.dcache.demandHits::cpu.data       21463939                       # number of demand (read+write) hits (Count)
system.cpu.dcache.demandHits::total          21463939                       # number of demand (read+write) hits (Count)
system.cpu.dcache.overallHits::cpu.data      21463939                       # number of overall hits (Count)
system.cpu.dcache.overallHits::total         21463939                       # number of overall hits (Count)
system.cpu.dcache.demandMisses::cpu.data       121750                       # number of demand (read+write) misses (Count)
system.cpu.dcache.demandMisses::total          121750                       # number of demand (read+write) misses (Count)
system.cpu.dcache.overallMisses::cpu.data       121750                       # number of overall misses (Count)
system.cpu.dcache.overallMisses::total         121750                       # number of overall misses (Count)
system.cpu.dcache.demandMissLatency::cpu.data  24556397137                       # number of demand (read+write) miss ticks (Tick)
system.cpu.dcache.demandMissLatency::total  24556397137                       # number of demand (read+write) miss ticks (Tick)
system.cpu.dcache.overallMissLatency::cpu.data  24556397137                       # number of overall miss ticks (Tick)
system.cpu.dcache.overallMissLatency::total  24556397137                       # number of overall miss ticks (Tick)
system.cpu.dcache.demandAccesses::cpu.data     21585689                       # number of demand (read+write) accesses (Count)
system.cpu.dcache.demandAccesses::total      21585689                       # number of demand (read+write) accesses (Count)
system.cpu.dcache.overallAccesses::cpu.data     21585689                       # number of overall (read+write) accesses (Count)
system.cpu.dcache.overallAccesses::total     21585689                       # number of overall (read+write) accesses (Count)
system.cpu.dcache.demandMissRate::cpu.data     0.005640                       # miss rate for demand accesses (Ratio)
system.cpu.dcache.demandMissRate::total      0.005640                       # miss rate for demand accesses (Ratio)
system.cpu.dcache.overallMissRate::cpu.data     0.005640                       # miss rate for overall accesses (Ratio)
system.cpu.dcache.overallMissRate::total     0.005640                       # miss rate for overall accesses (Ratio)
system.cpu.dcache.demandAvgMissLatency::cpu.data 201695.253692                       # average overall miss latency in ticks ((Tick/Count))
system.cpu.dcache.demandAvgMissLatency::total 201695.253692                       # average overall miss latency in ticks ((Tick/Count))
system.cpu.dcache.overallAvgMissLatency::cpu.data 201695.253692                       # average overall miss latency ((Tick/Count))
system.cpu.dcache.overallAvgMissLatency::total 201695.253692                       # average overall miss latency ((Tick/Count))
system.cpu.dcache.blockedCycles::no_mshrs       805605                       # number of cycles access was blocked (Cycle)
system.cpu.dcache.blockedCycles::no_targets        22112                       # number of cycles access was blocked (Cycle)
system.cpu.dcache.blockedCauses::no_mshrs          862                       # number of times access was blocked (Count)
system.cpu.dcache.blockedCauses::no_targets           36                       # number of times access was blocked (Count)
system.cpu.dcache.avgBlocked::no_mshrs     934.576566                       # average number of cycles each access was blocked ((Cycle/Count))
system.cpu.dcache.avgBlocked::no_targets   614.222222                       # average number of cycles each access was blocked ((Cycle/Count))
system.cpu.dcache.writebacks::writebacks        98557                       # number of writebacks (Count)
system.cpu.dcache.writebacks::total             98557                       # number of writebacks (Count)
system.cpu.dcache.demandMshrHits::cpu.data        18052                       # number of demand (read+write) MSHR hits (Count)
system.cpu.dcache.demandMshrHits::total         18052                       # number of demand (read+write) MSHR hits (Count)
system.cpu.dcache.overallMshrHits::cpu.data        18052                       # number of overall MSHR hits (Count)
[...]
system.l2.ReadSharedReq.mshrMissRate::total     0.100517                       # mshr miss rate for ReadSharedReq accesses (Ratio)
system.l2.ReadSharedReq.avgMshrMissLatency::cpu.data 710500.135207                       # average ReadSharedReq mshr miss latency ((Tick/Count))
system.l2.ReadSharedReq.avgMshrMissLatency::total 710500.135207                       # average ReadSharedReq mshr miss latency ((Tick/Count))
system.l2.UpgradeReq.hits::cpu.data                 2                       # number of UpgradeReq hits (Count)
system.l2.UpgradeReq.hits::total                    2                       # number of UpgradeReq hits (Count)
system.l2.UpgradeReq.accesses::cpu.data             2                       # number of UpgradeReq accesses(hits+misses) (Count)
system.l2.UpgradeReq.accesses::total                2                       # number of UpgradeReq accesses(hits+misses) (Count)
system.l2.WriteReq.mshrUncacheable::cpu.data       372528                       # number of WriteReq MSHR uncacheable (Count)
system.l2.WriteReq.mshrUncacheable::total       372528                       # number of WriteReq MSHR uncacheable (Count)
system.l2.WritebackClean.hits::writebacks        11720                       # number of WritebackClean hits (Count)
system.l2.WritebackClean.hits::total            11720                       # number of WritebackClean hits (Count)
system.l2.WritebackClean.accesses::writebacks        11720                       # number of WritebackClean accesses(hits+misses) (Count)
system.l2.WritebackClean.accesses::total        11720                       # number of WritebackClean accesses(hits+misses) (Count)
system.l2.WritebackDirty.hits::writebacks        98557                       # number of WritebackDirty hits (Count)
system.l2.WritebackDirty.hits::total            98557                       # number of WritebackDirty hits (Count)
system.l2.WritebackDirty.accesses::writebacks        98557                       # number of WritebackDirty accesses(hits+misses) (Count)
system.l2.WritebackDirty.accesses::total        98557                       # number of WritebackDirty accesses(hits+misses) (Count)
system.l2.power_state.pwrStateResidencyTicks::UNDEFINED 791406558667                       # Cumulative time (in ticks) in various power states (Tick)
system.l2.tags.tagsInUse                 27145.263704                       # Average ticks per tags in use ((Tick/Count))
system.l2.tags.totalRefs                       230821                       # Total number of references to valid blocks. (Count)
system.l2.tags.sampledRefs                      41933                       # Sample count of references to valid blocks. (Count)
system.l2.tags.avgRefs                       5.504519                       # Average number of references to valid blocks. ((Count/Count))
system.l2.tags.warmupTick                      430000                       # The tick when the warmup percentage was hit. (Tick)
system.l2.tags.occupancies::writebacks       9.278209                       # Average occupied blocks per tick, per requestor ((Count/Tick))
system.l2.tags.occupancies::cpu.inst      1179.431382                       # Average occupied blocks per tick, per requestor ((Count/Tick))
system.l2.tags.occupancies::cpu.data     25956.554113                       # Average occupied blocks per tick, per requestor ((Count/Tick))
system.l2.tags.avgOccs::writebacks           0.000283                       # Average percentage of cache occupancy ((Ratio/Tick))
system.l2.tags.avgOccs::cpu.inst             0.035993                       # Average percentage of cache occupancy ((Ratio/Tick))
system.l2.tags.avgOccs::cpu.data             0.792131                       # Average percentage of cache occupancy ((Ratio/Tick))
system.l2.tags.avgOccs::total                0.828408                       # Average percentage of cache occupancy ((Ratio/Tick))
system.l2.tags.occupanciesTaskId::1024          32768                       # Occupied blocks per task id (Count)
system.l2.tags.ageTaskId_1024::0                   14                       # Occupied blocks per task id, per block age (Count)
system.l2.tags.ageTaskId_1024::1                  126                       # Occupied blocks per task id, per block age (Count)
system.l2.tags.ageTaskId_1024::2                  311                       # Occupied blocks per task id, per block age (Count)
system.l2.tags.ageTaskId_1024::3                  193                       # Occupied blocks per task id, per block age (Count)
system.l2.tags.ageTaskId_1024::4                32124                       # Occupied blocks per task id, per block age (Count)
system.l2.tags.ratioOccsTaskId::1024                1                       # Ratio of occupied blocks and all blocks, per task id (Ratio)
system.l2.tags.tagAccesses                    1888517                       # Number of tag accesses (Count)
system.l2.tags.dataAccesses                   1888517                       # Number of data accesses (Count)
system.l2.tags.power_state.pwrStateResidencyTicks::UNDEFINED 791406558667                       # Cumulative time (in ticks) in various power states (Tick)
system.mem_ctrls.bytesRead::cpu.inst           131712                       # Number of bytes read from this memory (Byte)
system.mem_ctrls.bytesRead::cpu.data         10966612                       # Number of bytes read from this memory (Byte)
system.mem_ctrls.bytesRead::total            11098324                       # Number of bytes read from this memory (Byte)
system.mem_ctrls.bytesInstRead::cpu.inst       131712                       # Number of instructions bytes read from this memory (Byte)
system.mem_ctrls.bytesInstRead::total          131712                       # Number of instructions bytes read from this memory (Byte)
system.mem_ctrls.bytesWritten::writebacks       267520                       # Number of bytes written to this memory (Byte)
system.mem_ctrls.bytesWritten::cpu.data       2344162                       # Number of bytes written to this memory (Byte)
system.mem_ctrls.bytesWritten::total          2611682                       # Number of bytes written to this memory (Byte)
system.mem_ctrls.numReads::cpu.inst              2058                       # Number of read requests responded to by this memory (Count)
system.mem_ctrls.numReads::cpu.data           1093231                       # Number of read requests responded to by this memory (Count)
system.mem_ctrls.numReads::total              1095289                       # Number of read requests responded to by this memory (Count)
system.mem_ctrls.numWrites::writebacks           4180                       # Number of write requests responded to by this memory (Count)
system.mem_ctrls.numWrites::cpu.data           372528                       # Number of write requests responded to by this memory (Count)
system.mem_ctrls.numWrites::total              376708                       # Number of write requests responded to by this memory (Count)
system.mem_ctrls.bwRead::cpu.inst              166428                       # Total read bandwidth from this memory ((Byte/Second))
system.mem_ctrls.bwRead::cpu.data            13857115                       # Total read bandwidth from this memory ((Byte/Second))
system.mem_ctrls.bwRead::total               14023543                       # Total read bandwidth from this memory ((Byte/Second))
system.mem_ctrls.bwInstRead::cpu.inst          166428                       # Instruction read bandwidth from this memory ((Byte/Second))
system.mem_ctrls.bwInstRead::total             166428                       # Instruction read bandwidth from this memory ((Byte/Second))
system.mem_ctrls.bwWrite::writebacks           338031                       # Write bandwidth from this memory ((Byte/Second))
system.mem_ctrls.bwWrite::cpu.data            2962020                       # Write bandwidth from this memory ((Byte/Second))
system.mem_ctrls.bwWrite::total               3300051                       # Write bandwidth from this memory ((Byte/Second))
system.mem_ctrls.bwTotal::writebacks           338031                       # Total bandwidth to/from this memory ((Byte/Second))
system.mem_ctrls.bwTotal::cpu.inst             166428                       # Total bandwidth to/from this memory ((Byte/Second))
system.mem_ctrls.bwTotal::cpu.data           16819135                       # Total bandwidth to/from this memory ((Byte/Second))
system.mem_ctrls.bwTotal::total              17323594                       # Total bandwidth to/from this memory ((Byte/Second))
system.mem_ctrls.power_state.pwrStateResidencyTicks::UNDEFINED 791406558667                       # Cumulative time (in ticks) in various power states (Tick)
system.membus.transDist::ReadReq              1053486                       # Transaction distribution (Count)
system.membus.transDist::ReadResp             1059279                       # Transaction distribution (Count)
system.membus.transDist::WriteReq              372528                       # Transaction distribution (Count)
system.membus.transDist::WriteResp             372528                       # Transaction distribution (Count)
system.membus.transDist::WritebackDirty          4180                       # Transaction distribution (Count)
system.membus.transDist::CleanEvict              4596                       # Transaction distribution (Count)
system.membus.transDist::ReadExReq              36010                       # Transaction distribution (Count)
system.membus.transDist::ReadExResp             36010                       # Transaction distribution (Count)
system.membus.transDist::ReadSharedReq           5793                       # Transaction distribution (Count)
system.membus.pktCount_system.l2.mem_side_port::system.mem_ctrls.port      2944410                       # Packet count per connected requestor and responder (Count)
system.membus.pktCount_system.l2.mem_side_port::total      2944410                       # Packet count per connected requestor and responder (Count)
system.membus.pktCount::total                 2944410                       # Packet count per connected requestor and responder (Count)
system.membus.pktSize_system.l2.mem_side_port::system.mem_ctrls.port     13710006                       # Cumulative packet size per connected requestor and responder (Byte)
system.membus.pktSize_system.l2.mem_side_port::total     13710006                       # Cumulative packet size per connected requestor and responder (Byte)
system.membus.pktSize::total                 13710006                       # Cumulative packet size per connected requestor and responder (Byte)
system.membus.snoops                                0                       # Total snoops (Count)
system.membus.snoopTraffic                          0                       # Total snoop traffic (Byte)
system.membus.snoopFanout::samples            1543028                       # Request fanout histogram (Count)
system.membus.snoopFanout::mean                     0                       # Request fanout histogram (Count)
system.membus.snoopFanout::stdev                    0                       # Request fanout histogram (Count)
system.membus.snoopFanout::underflows               0      0.00%      0.00% # Request fanout histogram (Count)
system.membus.snoopFanout::0                  1543028    100.00%    100.00% # Request fanout histogram (Count)
system.membus.snoopFanout::1                        0      0.00%    100.00% # Request fanout histogram (Count)
system.membus.snoopFanout::overflows                0      0.00%    100.00% # Request fanout histogram (Count)
system.membus.snoopFanout::min_value                0                       # Request fanout histogram (Count)
system.membus.snoopFanout::max_value                0                       # Request fanout histogram (Count)
system.membus.snoopFanout::total              1543028                       # Request fanout histogram (Count)
system.membus.power_state.pwrStateResidencyTicks::UNDEFINED 791406558667                       # Cumulative time (in ticks) in various power states (Tick)
system.membus.reqLayer2.occupancy          7153721754                       # Layer occupancy (ticks) (Tick)
system.membus.reqLayer2.utilization               0.0                       # Layer utilization (Ratio)
system.membus.respLayer1.occupancy         8629827607                       # Layer occupancy (ticks) (Tick)
system.membus.respLayer1.utilization              0.0                       # Layer utilization (Ratio)
system.membus.snoop_filter.totRequests          50585                       # Total number of requests made to the snoop filter. (Count)
system.membus.snoop_filter.hitSingleRequests         8779                       # Number of requests hitting in the snoop filter with a single holder of the requested data. (Count)
system.membus.snoop_filter.hitMultiRequests            0                       # Number of requests hitting in the snoop filter with multiple (>1) holders of the requested data. (Count)
system.membus.snoop_filter.totSnoops                0                       # Total number of snoops made to the snoop filter. (Count)
system.membus.snoop_filter.hitSingleSnoops            0                       # Number of snoops hitting in the snoop filter with a single holder of the requested data. (Count)
system.membus.snoop_filter.hitMultiSnoops            0                       # Number of snoops hitting in the snoop filter with multiple (>1) holders of the requested data. (Count)
system.tol2bus.transDist::ReadReq             1053486                       # Transaction distribution (Count)
system.tol2bus.transDist::ReadResp            1102883                       # Transaction distribution (Count)
system.tol2bus.transDist::WriteReq             372528                       # Transaction distribution (Count)
system.tol2bus.transDist::WriteResp            372528                       # Transaction distribution (Count)
system.tol2bus.transDist::WritebackDirty       102738                       # Transaction distribution (Count)
system.tol2bus.transDist::WritebackClean        11727                       # Transaction distribution (Count)
system.tol2bus.transDist::CleanEvict             9611                       # Transaction distribution (Count)
system.tol2bus.transDist::UpgradeReq                2                       # Transaction distribution (Count)
system.tol2bus.transDist::UpgradeResp               2                       # Transaction distribution (Count)
system.tol2bus.transDist::ReadExReq             66538                       # Transaction distribution (Count)
system.tol2bus.transDist::ReadExResp            66538                       # Transaction distribution (Count)
system.tol2bus.transDist::ReadCleanReq          12240                       # Transaction distribution (Count)
system.tol2bus.transDist::ReadSharedReq         37158                       # Transaction distribution (Count)
system.tol2bus.pktCount_system.cpu.icache.mem_side_port::system.l2.cpu_side_port        36199                       # Packet count per connected requestor and responder (Count)
system.tol2bus.pktCount_system.cpu.dcache.mem_side_port::system.l2.cpu_side_port      3162608                       # Packet count per connected requestor and responder (Count)
system.tol2bus.pktCount::total                3198807                       # Packet count per connected requestor and responder (Count)
system.tol2bus.pktSize_system.cpu.icache.mem_side_port::system.l2.cpu_side_port      1533376                       # Cumulative packet size per connected requestor and responder (Byte)
system.tol2bus.pktSize_system.cpu.dcache.mem_side_port::system.l2.cpu_side_port     23711286                       # Cumulative packet size per connected requestor and responder (Byte)
system.tol2bus.pktSize::total                25244662                       # Cumulative packet size per connected requestor and responder (Byte)
system.tol2bus.snoops                            9172                       # Total snoops (Count)
system.tol2bus.snoopTraffic                    268032                       # Total snoop traffic (Byte)
system.tol2bus.snoopFanout::samples           1551117                       # Request fanout histogram (Count)
system.tol2bus.snoopFanout::mean             0.000269                       # Request fanout histogram (Count)
system.tol2bus.snoopFanout::stdev            0.016394                       # Request fanout histogram (Count)
system.tol2bus.snoopFanout::underflows              0      0.00%      0.00% # Request fanout histogram (Count)
system.tol2bus.snoopFanout::0                 1550700     99.97%     99.97% # Request fanout histogram (Count)
system.tol2bus.snoopFanout::1                     417      0.03%    100.00% # Request fanout histogram (Count)
system.tol2bus.snoopFanout::2                       0      0.00%    100.00% # Request fanout histogram (Count)
system.tol2bus.snoopFanout::3                       0      0.00%    100.00% # Request fanout histogram (Count)
system.tol2bus.snoopFanout::4                       0      0.00%    100.00% # Request fanout histogram (Count)
system.tol2bus.snoopFanout::overflows               0      0.00%    100.00% # Request fanout histogram (Count)
system.tol2bus.snoopFanout::min_value               0                       # Request fanout histogram (Count)
system.tol2bus.snoopFanout::max_value               1                       # Request fanout histogram (Count)
system.tol2bus.snoopFanout::total             1551117                       # Request fanout histogram (Count)
system.tol2bus.power_state.pwrStateResidencyTicks::UNDEFINED 791406558667                       # Cumulative time (in ticks) in various power states (Tick)
system.tol2bus.reqLayer0.occupancy          704237167                       # Layer occupancy (ticks) (Tick)
system.tol2bus.reqLayer0.utilization              0.0                       # Layer utilization (Ratio)
system.tol2bus.respLayer0.occupancy          11493357                       # Layer occupancy (ticks) (Tick)
system.tol2bus.respLayer0.utilization             0.0                       # Layer utilization (Ratio)
system.tol2bus.respLayer1.occupancy         877669238                       # Layer occupancy (ticks) (Tick)
system.tol2bus.respLayer1.utilization             0.0                       # Layer utilization (Ratio)
system.tol2bus.snoop_filter.totRequests        230849                       # Total number of requests made to the snoop filter. (Count)
system.tol2bus.snoop_filter.hitSingleRequests       114914                       # Number of requests hitting in the snoop filter with a single holder of the requested data. (Count)
system.tol2bus.snoop_filter.hitMultiRequests           24                       # Number of requests hitting in the snoop filter with multiple (>1) holders of the requested data. (Count)
system.tol2bus.snoop_filter.totSnoops             391                       # Total number of snoops made to the snoop filter. (Count)
system.tol2bus.snoop_filter.hitSingleSnoops          391                       # Number of snoops hitting in the snoop filter with a single holder of the requested data. (Count)
system.tol2bus.snoop_filter.hitMultiSnoops            0                       # Number of snoops hitting in the snoop filter with multiple (>1) holders of the requested data. (Count)
system.voltage_domain.voltage                       1                       # Voltage in Volts (Volt)
system.workload.inst.arm                            0                       # number of arm instructions executed (Count)
system.workload.inst.quiesce                        0                       # number of quiesce instructions executed (Count)

---------- End Simulation Statistics   ----------
