
---------- Begin Simulation Statistics ----------
simSeconds                                  19.037372                       # Number of seconds simulated (Second)
simTicks                                 19037371513363                       # Number of ticks simulated (Tick)
finalTick                                19037371513363                       # Number of ticks from beginning of simulation (restored from checkpoints and never reset) (Tick)
simFreq                                  1000000000000                       # The number of ticks per simulated second ((Tick/Second))
hostSeconds                                  36119.19                       # Real time elapsed on the host (Second)
hostTickRate                                527070836                       # The number of ticks simulated per host second (ticks/s) ((Tick/Second))
hostMemory                                    8076656                       # Number of bytes of host memory used (Byte)
simInsts                                  17202685806                       # Number of instructions simulated (Count)
simOps                                    18643563102                       # Number of ops (including micro ops) simulated (Count)
hostInstRate                                   476276                       # Simulator instruction rate (inst/s) ((Count/Second))
hostOpRate                                     516168                       # Simulator op (including micro ops) rate (op/s) ((Count/Second))
system.clk_domain.clock                          2500                       # Clock period in ticks (Tick)
system.cpu0.numCycles                     22853987411                       # Number of cpu cycles simulated (Cycle)
system.cpu0.cpi                              1.328513                       # CPI: cycles per instruction (core level) ((Cycle/Count))
system.cpu0.ipc                              0.752721                       # IPC: instructions per cycle (core level) ((Count/Cycle))
system.cpu0.numWorkItemsStarted                     0                       # Number of work items this cpu started (Count)
system.cpu0.numWorkItemsCompleted                   0                       # Number of work items this cpu completed (Count)
system.cpu0.branchPred.lookups_0::NoBranch       979604      0.05%      0.05% # Number of BP lookups (Count)
system.cpu0.branchPred.lookups_0::Return    674039326     37.36%     37.41% # Number of BP lookups (Count)
system.cpu0.branchPred.lookups_0::CallDirect    673924564     37.35%     74.76% # Number of BP lookups (Count)
system.cpu0.branchPred.lookups_0::CallIndirect         4620      0.00%     74.76% # Number of BP lookups (Count)
system.cpu0.branchPred.lookups_0::DirectCond    297935153     16.51%     91.28% # Number of BP lookups (Count)
system.cpu0.branchPred.lookups_0::DirectUncond    157206041      8.71%     99.99% # Number of BP lookups (Count)
system.cpu0.branchPred.lookups_0::IndirectCond            4      0.00%     99.99% # Number of BP lookups (Count)
system.cpu0.branchPred.lookups_0::IndirectUncond       165611      0.01%    100.00% # Number of BP lookups (Count)
system.cpu0.branchPred.lookups_0::total    1804254923                       # Number of BP lookups (Count)
system.cpu0.branchPred.squashes_0::NoBranch       331768     22.44%     22.44% # Number of branches that got squashed (completely removed) as an earlier branch was mispredicted. (Count)
system.cpu0.branchPred.squashes_0::Return       438249     29.64%     52.07% # Number of branches that got squashed (completely removed) as an earlier branch was mispredicted. (Count)
system.cpu0.branchPred.squashes_0::CallDirect       328963     22.25%     74.32% # Number of branches that got squashed (completely removed) as an earlier branch was mispredicted. (Count)
system.cpu0.branchPred.squashes_0::CallIndirect           99      0.01%     74.33% # Number of branches that got squashed (completely removed) as an earlier branch was mispredicted. (Count)
system.cpu0.branchPred.squashes_0::DirectCond       268862     18.18%     92.51% # Number of branches that got squashed (completely removed) as an earlier branch was mispredicted. (Count)
system.cpu0.branchPred.squashes_0::DirectUncond       110512      7.47%     99.98% # Number of branches that got squashed (completely removed) as an earlier branch was mispredicted. (Count)
system.cpu0.branchPred.squashes_0::IndirectCond            4      0.00%     99.98% # Number of branches that got squashed (completely removed) as an earlier branch was mispredicted. (Count)
system.cpu0.branchPred.squashes_0::IndirectUncond          230      0.02%    100.00% # Number of branches that got squashed (completely removed) as an earlier branch was mispredicted. (Count)
system.cpu0.branchPred.squashes_0::total      1478687                       # Number of branches that got squashed (completely removed) as an earlier branch was mispredicted. (Count)
system.cpu0.branchPred.corrected_0::NoBranch          783      0.12%      0.12% # Number of branches that got corrected but not yet commited. Branches get corrected by decode or after execute. Also a branch misprediction can be detected out-of-order. Therefore, a corrected branch might not end up beeing committed in case an even earlier branch was mispredicted (Count)
system.cpu0.branchPred.corrected_0::Return       162034     25.81%     25.94% # Number of branches that got corrected but not yet commited. Branches get corrected by decode or after execute. Also a branch misprediction can be detected out-of-order. Therefore, a corrected branch might not end up beeing committed in case an even earlier branch was mispredicted (Count)
system.cpu0.branchPred.corrected_0::CallDirect         6374      1.02%     26.95% # Number of branches that got corrected but not yet commited. Branches get corrected by decode or after execute. Also a branch misprediction can be detected out-of-order. Therefore, a corrected branch might not end up beeing committed in case an even earlier branch was mispredicted (Count)
system.cpu0.branchPred.corrected_0::CallIndirect          106      0.02%     26.97% # Number of branches that got corrected but not yet commited. Branches get corrected by decode or after execute. Also a branch misprediction can be detected out-of-order. Therefore, a corrected branch might not end up beeing committed in case an even earlier branch was mispredicted (Count)
system.cpu0.branchPred.corrected_0::DirectCond       456893     72.78%     99.75% # Number of branches that got corrected but not yet commited. Branches get corrected by decode or after execute. Also a branch misprediction can be detected out-of-order. Therefore, a corrected branch might not end up beeing committed in case an even earlier branch was mispredicted (Count)
system.cpu0.branchPred.corrected_0::DirectUncond          836      0.13%     99.88% # Number of branches that got corrected but not yet commited. Branches get corrected by decode or after execute. Also a branch misprediction can be detected out-of-order. Therefore, a corrected branch might not end up beeing committed in case an even earlier branch was mispredicted (Count)
system.cpu0.branchPred.corrected_0::IndirectCond            0      0.00%     99.88% # Number of branches that got corrected but not yet commited. Branches get corrected by decode or after execute. Also a branch misprediction can be detected out-of-order. Therefore, a corrected branch might not end up beeing committed in case an even earlier branch was mispredicted (Count)
system.cpu0.branchPred.corrected_0::IndirectUncond          755      0.12%    100.00% # Number of branches that got corrected but not yet commited. Branches get corrected by decode or after execute. Also a branch misprediction can be detected out-of-order. Therefore, a corrected branch might not end up beeing committed in case an even earlier branch was mispredicted (Count)
system.cpu0.branchPred.corrected_0::total       627781                       # Number of branches that got corrected but not yet commited. Branches get corrected by decode or after execute. Also a branch misprediction can be detected out-of-order. Therefore, a corrected branch might not end up beeing committed in case an even earlier branch was mispredicted (Count)
system.cpu0.branchPred.earlyResteers_0::NoBranch            0                       # Number of branches that got redirected after decode. (Count)
system.cpu0.branchPred.earlyResteers_0::Return            0                       # Number of branches that got redirected after decode. (Count)
system.cpu0.branchPred.earlyResteers_0::CallDirect            0                       # Number of branches that got redirected after decode. (Count)
system.cpu0.branchPred.earlyResteers_0::CallIndirect            0                       # Number of branches that got redirected after decode. (Count)
system.cpu0.branchPred.earlyResteers_0::DirectCond            0                       # Number of branches that got redirected after decode. (Count)
system.cpu0.branchPred.earlyResteers_0::DirectUncond            0                       # Number of branches that got redirected after decode. (Count)
system.cpu0.branchPred.earlyResteers_0::IndirectCond            0                       # Number of branches that got redirected after decode. (Count)
system.cpu0.branchPred.earlyResteers_0::IndirectUncond            0                       # Number of branches that got redirected after decode. (Count)
system.cpu0.branchPred.earlyResteers_0::total            0                       # Number of branches that got redirected after decode. (Count)
system.cpu0.branchPred.committed_0::NoBranch       647835      0.04%      0.04% # Number of branches finally committed  (Count)
system.cpu0.branchPred.committed_0::Return    673601076     37.36%     37.40% # Number of branches finally committed  (Count)
system.cpu0.branchPred.committed_0::CallDirect    673595601     37.36%     74.76% # Number of branches finally committed  (Count)
system.cpu0.branchPred.committed_0::CallIndirect         4521      0.00%     74.77% # Number of branches finally committed  (Count)
system.cpu0.branchPred.committed_0::DirectCond    297666291     16.51%     91.28% # Number of branches finally committed  (Count)
system.cpu0.branchPred.committed_0::DirectUncond    157095529      8.71%     99.99% # Number of branches finally committed  (Count)
system.cpu0.branchPred.committed_0::IndirectCond            0      0.00%     99.99% # Number of branches finally committed  (Count)
system.cpu0.branchPred.committed_0::IndirectUncond       165381      0.01%    100.00% # Number of branches finally committed  (Count)
system.cpu0.branchPred.committed_0::total   1802776234                       # Number of branches finally committed  (Count)
system.cpu0.branchPred.mispredicted_0::NoBranch          783      0.12%      0.12% # Number of committed branches that were mispredicted. (Count)
system.cpu0.branchPred.mispredicted_0::Return       162034     25.81%     25.94% # Number of committed branches that were mispredicted. (Count)
system.cpu0.branchPred.mispredicted_0::CallDirect         6374      1.02%     26.95% # Number of committed branches that were mispredicted. (Count)
system.cpu0.branchPred.mispredicted_0::CallIndirect          106      0.02%     26.97% # Number of committed branches that were mispredicted. (Count)
system.cpu0.branchPred.mispredicted_0::DirectCond       456893     72.78%     99.75% # Number of committed branches that were mispredicted. (Count)
system.cpu0.branchPred.mispredicted_0::DirectUncond          836      0.13%     99.88% # Number of committed branches that were mispredicted. (Count)
system.cpu0.branchPred.mispredicted_0::IndirectCond            0      0.00%     99.88% # Number of committed branches that were mispredicted. (Count)
system.cpu0.branchPred.mispredicted_0::IndirectUncond          755      0.12%    100.00% # Number of committed branches that were mispredicted. (Count)
system.cpu0.branchPred.mispredicted_0::total       627781                       # Number of committed branches that were mispredicted. (Count)
system.cpu0.branchPred.targetProvider_0::NoTarget    175381856      9.72%      9.72% # The component providing the target for taken branches (Count)
system.cpu0.branchPred.targetProvider_0::BTB    954825608     52.92%     62.64% # The component providing the target for taken branches (Count)
system.cpu0.branchPred.targetProvider_0::RAS    674039323     37.36%    100.00% # The component providing the target for taken branches (Count)
system.cpu0.branchPred.targetProvider_0::Indirect         8136      0.00%    100.00% # The component providing the target for taken branches (Count)
system.cpu0.branchPred.targetProvider_0::total   1804254923                       # The component providing the target for taken branches (Count)
system.cpu0.branchPred.targetWrong_0::NoBranch       345054     55.03%     55.03% # Number of branches where the target was incorrect or not available at prediction time. (Count)
system.cpu0.branchPred.targetWrong_0::Return       119191     19.01%     74.04% # Number of branches where the target was incorrect or not available at prediction time. (Count)
system.cpu0.branchPred.targetWrong_0::CallDirect       162031     25.84%     99.89% # Number of branches where the target was incorrect or not available at prediction time. (Count)
system.cpu0.branchPred.targetWrong_0::CallIndirect          719      0.11%    100.00% # Number of branches where the target was incorrect or not available at prediction time. (Count)
system.cpu0.branchPred.targetWrong_0::DirectCond            0      0.00%    100.00% # Number of branches where the target was incorrect or not available at prediction time. (Count)
system.cpu0.branchPred.targetWrong_0::DirectUncond            0      0.00%    100.00% # Number of branches where the target was incorrect or not available at prediction time. (Count)
system.cpu0.branchPred.targetWrong_0::IndirectCond            0      0.00%    100.00% # Number of branches where the target was incorrect or not available at prediction time. (Count)
system.cpu0.branchPred.targetWrong_0::IndirectUncond            0      0.00%    100.00% # Number of branches where the target was incorrect or not available at prediction time. (Count)
system.cpu0.branchPred.targetWrong_0::total       626995                       # Number of branches where the target was incorrect or not available at prediction time. (Count)
system.cpu0.branchPred.condPredicted        299076424                       # Number of conditional branches predicted (Count)
system.cpu0.branchPred.condPredictedTaken    123866199                       # Number of conditional branches predicted as taken (Count)
system.cpu0.branchPred.condIncorrect           627781                       # Number of conditional branches incorrect (Count)
system.cpu0.branchPred.predTakenBTBMiss          3137                       # Number of branches predicted taken but missed in BTB (Count)
system.cpu0.branchPred.NotTakenMispredicted       514731                       # Number branches predicted 'not taken' but turned out to be taken (Count)
system.cpu0.branchPred.TakenMispredicted       113050                       # Number branches predicted taken but are actually not taken (Count)
system.cpu0.branchPred.BTBLookups          1804254923                       # Number of BTB lookups (Count)
system.cpu0.branchPred.BTBUpdates              351053                       # Number of BTB updates (Count)
system.cpu0.branchPred.BTBHits             1109635315                       # Number of BTB hits (Count)
system.cpu0.branchPred.BTBHitRatio           0.615010                       # BTB Hit Ratio (Ratio)
system.cpu0.branchPred.BTBMispredicted           3553                       # Number BTB mispredictions. No target found or target wrong (Count)
system.cpu0.branchPred.indirectLookups         170231                       # Number of indirect predictor lookups. (Count)
system.cpu0.branchPred.indirectHits              8136                       # Number of indirect target hits. (Count)
system.cpu0.branchPred.indirectMisses          162095                       # Number of indirect misses. (Count)
system.cpu0.branchPred.indirectMispredicted            0                       # Number of mispredicted indirect branches. (Count)
system.cpu0.branchPred.btb.lookups::NoBranch       979604      0.05%      0.05% # Number of BTB lookups (Count)
system.cpu0.branchPred.btb.lookups::Return    674039326     37.36%     37.41% # Number of BTB lookups (Count)
system.cpu0.branchPred.btb.lookups::CallDirect    673924564     37.35%     74.76% # Number of BTB lookups (Count)
system.cpu0.branchPred.btb.lookups::CallIndirect         4620      0.00%     74.76% # Number of BTB lookups (Count)
system.cpu0.branchPred.btb.lookups::DirectCond    297935153     16.51%     91.28% # Number of BTB lookups (Count)
system.cpu0.branchPred.btb.lookups::DirectUncond    157206041      8.71%     99.99% # Number of BTB lookups (Count)
system.cpu0.branchPred.btb.lookups::IndirectCond            4      0.00%     99.99% # Number of BTB lookups (Count)
system.cpu0.branchPred.btb.lookups::IndirectUncond       165611      0.01%    100.00% # Number of BTB lookups (Count)
system.cpu0.branchPred.btb.lookups::total   1804254923                       # Number of BTB lookups (Count)
system.cpu0.branchPred.btb.misses::NoBranch       979604      0.14%      0.14% # Number of BTB misses (Count)
system.cpu0.branchPred.btb.misses::Return    674039322     97.04%     97.18% # Number of BTB misses (Count)
system.cpu0.branchPred.btb.misses::CallDirect       165289      0.02%     97.20% # Number of BTB misses (Count)
system.cpu0.branchPred.btb.misses::CallIndirect         4620      0.00%     97.20% # Number of BTB misses (Count)
system.cpu0.branchPred.btb.misses::DirectCond     19263782      2.77%     99.98% # Number of BTB misses (Count)
system.cpu0.branchPred.btb.misses::DirectUncond         1376      0.00%     99.98% # Number of BTB misses (Count)
system.cpu0.branchPred.btb.misses::IndirectCond            4      0.00%     99.98% # Number of BTB misses (Count)
system.cpu0.branchPred.btb.misses::IndirectUncond       165611      0.02%    100.00% # Number of BTB misses (Count)
system.cpu0.branchPred.btb.misses::total    694619608                       # Number of BTB misses (Count)
system.cpu0.branchPred.btb.updates::NoBranch            0      0.00%      0.00% # Number of BTB updates (Count)
system.cpu0.branchPred.btb.updates::Return            0      0.00%      0.00% # Number of BTB updates (Count)
system.cpu0.branchPred.btb.updates::CallDirect         6374      1.82%      1.82% # Number of BTB updates (Count)
system.cpu0.branchPred.btb.updates::CallIndirect            0      0.00%      1.82% # Number of BTB updates (Count)
system.cpu0.branchPred.btb.updates::DirectCond       343843     97.95%     99.76% # Number of BTB updates (Count)
system.cpu0.branchPred.btb.updates::DirectUncond          836      0.24%    100.00% # Number of BTB updates (Count)
system.cpu0.branchPred.btb.updates::IndirectCond            0      0.00%    100.00% # Number of BTB updates (Count)
system.cpu0.branchPred.btb.updates::IndirectUncond            0      0.00%    100.00% # Number of BTB updates (Count)
system.cpu0.branchPred.btb.updates::total       351053                       # Number of BTB updates (Count)
system.cpu0.branchPred.btb.mispredict::NoBranch            0      0.00%      0.00% # Number of BTB mispredictions. No target found or target wrong. (Count)
system.cpu0.branchPred.btb.mispredict::Return            0      0.00%      0.00% # Number of BTB mispredictions. No target found or target wrong. (Count)
system.cpu0.branchPred.btb.mispredict::CallDirect         6374      1.82%      1.82% # Number of BTB mispredictions. No target found or target wrong. (Count)
system.cpu0.branchPred.btb.mispredict::CallIndirect            0      0.00%      1.82% # Number of BTB mispredictions. No target found or target wrong. (Count)
system.cpu0.branchPred.btb.mispredict::DirectCond       343843     97.95%     99.76% # Number of BTB mispredictions. No target found or target wrong. (Count)
system.cpu0.branchPred.btb.mispredict::DirectUncond          836      0.24%    100.00% # Number of BTB mispredictions. No target found or target wrong. (Count)
system.cpu0.branchPred.btb.mispredict::IndirectCond            0      0.00%    100.00% # Number of BTB mispredictions. No target found or target wrong. (Count)
system.cpu0.branchPred.btb.mispredict::IndirectUncond            0      0.00%    100.00% # Number of BTB mispredictions. No target found or target wrong. (Count)
system.cpu0.branchPred.btb.mispredict::total       351053                       # Number of BTB mispredictions. No target found or target wrong. (Count)
system.cpu0.branchPred.btb.power_state.pwrStateResidencyTicks::UNDEFINED 19037371513363                       # Cumulative time (in ticks) in various power states (Tick)
system.cpu0.branchPred.indirectBranchPred.lookups       170231                       # Number of lookups (Count)
system.cpu0.branchPred.indirectBranchPred.hits         8136                       # Number of hits of a tag (Count)
system.cpu0.branchPred.indirectBranchPred.misses       162095                       # Number of misses (Count)
system.cpu0.branchPred.indirectBranchPred.targetRecords          861                       # Number of targets that where recorded/installed in the cache (Count)
system.cpu0.branchPred.indirectBranchPred.indirectRecords       171096                       # Number of indirect branches/calls recorded in the indirect hist (Count)
system.cpu0.branchPred.indirectBranchPred.speculativeOverflows            0                       # Number of times more than the allowed capacity for speculative branches/calls where in flight and destroy the path history (Count)
system.cpu0.branchPred.ras.pushes           674367433                       # Number of times a PC was pushed onto the RAS (Count)
system.cpu0.branchPred.ras.pops             674368388                       # Number of times a PC was poped from the RAS (Count)
system.cpu0.branchPred.ras.squashes            767311                       # Number of times the stack operation was squashed due to wrong speculation. (Count)
system.cpu0.branchPred.ras.used             673601076                       # Number of times the RAS is the provider (Count)
system.cpu0.branchPred.ras.correct          673439042                       # Number of times the RAS is the provider and the prediction is correct (Count)
system.cpu0.branchPred.ras.incorrect           162034                       # Number of times the RAS is the provider and the prediction is wrong (Count)
system.cpu0.commitStats0.numInsts         17202685806                       # Number of instructions committed (thread level) (Count)
system.cpu0.commitStats0.numOps           18643563102                       # Number of ops (including micro ops) committed (thread level) (Count)
system.cpu0.commitStats0.numInstsNotNOP             0                       # Number of instructions committed excluding NOPs or prefetches (Count)
system.cpu0.commitStats0.numOpsNotNOP               0                       # Number of Ops (including micro ops) Simulated (Count)
system.cpu0.commitStats0.cpi                 1.328513                       # CPI: cycles per instruction (thread level) ((Cycle/Count))
system.cpu0.commitStats0.ipc                 0.752721                       # IPC: instructions per cycle (thread level) ((Count/Cycle))
system.cpu0.commitStats0.numMemRefs                 0                       # Number of memory references committed (Count)
system.cpu0.commitStats0.numFpInsts                 0                       # Number of float instructions (Count)
system.cpu0.commitStats0.numIntInsts                0                       # Number of integer instructions (Count)
system.cpu0.commitStats0.numLoadInsts               0                       # Number of load instructions (Count)
system.cpu0.commitStats0.numStoreInsts              0                       # Number of store instructions (Count)
system.cpu0.commitStats0.numVecInsts                0                       # Number of vector instructions (Count)
system.cpu0.commitStats0.committedInstType::No_OpClass            0      0.00%      0.00% # Class of committed instruction. (Count)
system.cpu0.commitStats0.committedInstType::IntAlu  11071252299     59.38%     59.38% # Class of committed instruction. (Count)
system.cpu0.commitStats0.committedInstType::IntMult     94042841      0.50%     59.89% # Class of committed instruction. (Count)
system.cpu0.commitStats0.committedInstType::IntDiv            0      0.00%     59.89% # Class of committed instruction. (Count)
system.cpu0.commitStats0.committedInstType::FloatAdd            0      0.00%     59.89% # Class of committed instruction. (Count)
system.cpu0.commitStats0.committedInstType::FloatCmp            0      0.00%     59.89% # Class of committed instruction. (Count)
system.cpu0.commitStats0.committedInstType::FloatCvt            0      0.00%     59.89% # Class of committed instruction. (Count)
system.cpu0.commitStats0.committedInstType::FloatMult            0      0.00%     59.89% # Class of committed instruction. (Count)
system.cpu0.commitStats0.committedInstType::FloatMultAcc            0      0.00%     59.89% # Class of committed instruction. (Count)
system.cpu0.commitStats0.committedInstType::FloatDiv            0      0.00%     59.89% # Class of committed instruction. (Count)
system.cpu0.commitStats0.committedInstType::FloatMisc            0      0.00%     59.89% # Class of committed instruction. (Count)
system.cpu0.commitStats0.committedInstType::FloatSqrt            0      0.00%     59.89% # Class of committed instruction. (Count)
system.cpu0.commitStats0.committedInstType::SimdAdd            0      0.00%     59.89% # Class of committed instruction. (Count)
system.cpu0.commitStats0.committedInstType::SimdAddAcc            0      0.00%     59.89% # Class of committed instruction. (Count)
system.cpu0.commitStats0.committedInstType::SimdAlu            0      0.00%     59.89% # Class of committed instruction. (Count)
system.cpu0.commitStats0.committedInstType::SimdCmp            0      0.00%     59.89% # Class of committed instruction. (Count)
system.cpu0.commitStats0.committedInstType::SimdCvt            0      0.00%     59.89% # Class of committed instruction. (Count)
system.cpu0.commitStats0.committedInstType::SimdMisc            0      0.00%     59.89% # Class of committed instruction. (Count)
system.cpu0.commitStats0.committedInstType::SimdMult            0      0.00%     59.89% # Class of committed instruction. (Count)
system.cpu0.commitStats0.committedInstType::SimdMultAcc            0      0.00%     59.89% # Class of committed instruction. (Count)
system.cpu0.commitStats0.committedInstType::SimdMatMultAcc            0      0.00%     59.89% # Class of committed instruction. (Count)
system.cpu0.commitStats0.committedInstType::SimdShift            0      0.00%     59.89% # Class of committed instruction. (Count)
system.cpu0.commitStats0.committedInstType::SimdShiftAcc            0      0.00%     59.89% # Class of committed instruction. (Count)
system.cpu0.commitStats0.committedInstType::SimdDiv            0      0.00%     59.89% # Class of committed instruction. (Count)
system.cpu0.commitStats0.committedInstType::SimdSqrt            0      0.00%     59.89% # Class of committed instruction. (Count)
system.cpu0.commitStats0.committedInstType::SimdFloatAdd     61008124      0.33%     60.22% # Class of committed instruction. (Count)
system.cpu0.commitStats0.committedInstType::SimdFloatAlu            0      0.00%     60.22% # Class of committed instruction. (Count)
system.cpu0.commitStats0.committedInstType::SimdFloatCmp    117737404      0.63%     60.85% # Class of committed instruction. (Count)
system.cpu0.commitStats0.committedInstType::SimdFloatCvt     61226128      0.33%     61.18% # Class of committed instruction. (Count)
system.cpu0.commitStats0.committedInstType::SimdFloatDiv      2086276      0.01%     61.19% # Class of committed instruction. (Count)
system.cpu0.commitStats0.committedInstType::SimdFloatMisc    181285602      0.97%     62.16% # Class of committed instruction. (Count)
system.cpu0.commitStats0.committedInstType::SimdFloatMult     58942488      0.32%     62.48% # Class of committed instruction. (Count)
system.cpu0.commitStats0.committedInstType::SimdFloatMultAcc        15200      0.00%     62.48% # Class of committed instruction. (Count)
system.cpu0.commitStats0.committedInstType::SimdFloatMatMultAcc            0      0.00%     62.48% # Class of committed instruction. (Count)
system.cpu0.commitStats0.committedInstType::SimdFloatSqrt          100      0.00%     62.48% # Class of committed instruction. (Count)
system.cpu0.commitStats0.committedInstType::SimdReduceAdd            0      0.00%     62.48% # Class of committed instruction. (Count)
system.cpu0.commitStats0.committedInstType::SimdReduceAlu            0      0.00%     62.48% # Class of committed instruction. (Count)
system.cpu0.commitStats0.committedInstType::SimdReduceCmp            0      0.00%     62.48% # Class of committed instruction. (Count)
system.cpu0.commitStats0.committedInstType::SimdFloatReduceAdd            0      0.00%     62.48% # Class of committed instruction. (Count)
system.cpu0.commitStats0.committedInstType::SimdFloatReduceCmp            0      0.00%     62.48% # Class of committed instruction. (Count)
system.cpu0.commitStats0.committedInstType::SimdAes            0      0.00%     62.48% # Class of committed instruction. (Count)
system.cpu0.commitStats0.committedInstType::SimdAesMix            0      0.00%     62.48% # Class of committed instruction. (Count)
system.cpu0.commitStats0.committedInstType::SimdSha1Hash            0      0.00%     62.48% # Class of committed instruction. (Count)
system.cpu0.commitStats0.committedInstType::SimdSha1Hash2            0      0.00%     62.48% # Class of committed instruction. (Count)
system.cpu0.commitStats0.committedInstType::SimdSha256Hash            0      0.00%     62.48% # Class of committed instruction. (Count)
system.cpu0.commitStats0.committedInstType::SimdSha256Hash2            0      0.00%     62.48% # Class of committed instruction. (Count)
system.cpu0.commitStats0.committedInstType::SimdShaSigma2            0      0.00%     62.48% # Class of committed instruction. (Count)
system.cpu0.commitStats0.committedInstType::SimdShaSigma3            0      0.00%     62.48% # Class of committed instruction. (Count)
system.cpu0.commitStats0.committedInstType::SimdPredAlu            0      0.00%     62.48% # Class of committed instruction. (Count)
system.cpu0.commitStats0.committedInstType::Matrix            0      0.00%     62.48% # Class of committed instruction. (Count)
system.cpu0.commitStats0.committedInstType::MatrixMov            0      0.00%     62.48% # Class of committed instruction. (Count)
system.cpu0.commitStats0.committedInstType::MatrixOP            0      0.00%     62.48% # Class of committed instruction. (Count)
system.cpu0.commitStats0.committedInstType::MemRead   4518521583     24.24%     86.71% # Class of committed instruction. (Count)
system.cpu0.commitStats0.committedInstType::MemWrite   2477445057     13.29%    100.00% # Class of committed instruction. (Count)
system.cpu0.commitStats0.committedInstType::FloatMemRead            0      0.00%    100.00% # Class of committed instruction. (Count)
system.cpu0.commitStats0.committedInstType::FloatMemWrite            0      0.00%    100.00% # Class of committed instruction. (Count)
system.cpu0.commitStats0.committedInstType::IprAccess            0      0.00%    100.00% # Class of committed instruction. (Count)
system.cpu0.commitStats0.committedInstType::InstPrefetch            0      0.00%    100.00% # Class of committed instruction. (Count)
system.cpu0.commitStats0.committedInstType::SimdUnitStrideLoad            0      0.00%    100.00% # Class of committed instruction. (Count)
system.cpu0.commitStats0.committedInstType::SimdUnitStrideStore            0      0.00%    100.00% # Class of committed instruction. (Count)
system.cpu0.commitStats0.committedInstType::SimdUnitStrideMaskLoad            0      0.00%    100.00% # Class of committed instruction. (Count)
system.cpu0.commitStats0.committedInstType::SimdUnitStrideMaskStore            0      0.00%    100.00% # Class of committed instruction. (Count)
system.cpu0.commitStats0.committedInstType::SimdStridedLoad            0      0.00%    100.00% # Class of committed instruction. (Count)
system.cpu0.commitStats0.committedInstType::SimdStridedStore            0      0.00%    100.00% # Class of committed instruction. (Count)
system.cpu0.commitStats0.committedInstType::SimdIndexedLoad            0      0.00%    100.00% # Class of committed instruction. (Count)
system.cpu0.commitStats0.committedInstType::SimdIndexedStore            0      0.00%    100.00% # Class of committed instruction. (Count)
system.cpu0.commitStats0.committedInstType::SimdWholeRegisterLoad            0      0.00%    100.00% # Class of committed instruction. (Count)
system.cpu0.commitStats0.committedInstType::SimdWholeRegisterStore            0      0.00%    100.00% # Class of committed instruction. (Count)
system.cpu0.commitStats0.committedInstType::SimdUnitStrideFaultOnlyFirstLoad            0      0.00%    100.00% # Class of committed instruction. (Count)
system.cpu0.commitStats0.committedInstType::SimdUnitStrideSegmentedLoad            0      0.00%    100.00% # Class of committed instruction. (Count)
system.cpu0.commitStats0.committedInstType::SimdUnitStrideSegmentedStore            0      0.00%    100.00% # Class of committed instruction. (Count)
system.cpu0.commitStats0.committedInstType::SimdExt            0      0.00%    100.00% # Class of committed instruction. (Count)
system.cpu0.commitStats0.committedInstType::SimdFloatExt            0      0.00%    100.00% # Class of committed instruction. (Count)
system.cpu0.commitStats0.committedInstType::SimdConfig            0      0.00%    100.00% # Class of committed instruction. (Count)
system.cpu0.commitStats0.committedInstType::total  18643563102                       # Class of committed instruction. (Count)
system.cpu0.dcache.demandHits::cpu0.data   5957471091                       # number of demand (read+write) hits (Count)
system.cpu0.dcache.demandHits::total       5957471091                       # number of demand (read+write) hits (Count)
system.cpu0.dcache.overallHits::cpu0.data   5957473621                       # number of overall hits (Count)
system.cpu0.dcache.overallHits::total      5957473621                       # number of overall hits (Count)
system.cpu0.dcache.demandMisses::cpu0.data     93254349                       # number of demand (read+write) misses (Count)
system.cpu0.dcache.demandMisses::total       93254349                       # number of demand (read+write) misses (Count)
system.cpu0.dcache.overallMisses::cpu0.data     93254380                       # number of overall misses (Count)
system.cpu0.dcache.overallMisses::total      93254380                       # number of overall misses (Count)
system.cpu0.dcache.demandMissLatency::cpu0.data 4250576733109                       # number of demand (read+write) miss ticks (Tick)
system.cpu0.dcache.demandMissLatency::total 4250576733109                       # number of demand (read+write) miss ticks (Tick)
system.cpu0.dcache.overallMissLatency::cpu0.data 4250576733109                       # number of overall miss ticks (Tick)
system.cpu0.dcache.overallMissLatency::total 4250576733109                       # number of overall miss ticks (Tick)
system.cpu0.dcache.demandAccesses::cpu0.data   6050725440                       # number of demand (read+write) accesses (Count)
system.cpu0.dcache.demandAccesses::total   6050725440                       # number of demand (read+write) accesses (Count)
system.cpu0.dcache.overallAccesses::cpu0.data   6050728001                       # number of overall (read+write) accesses (Count)
system.cpu0.dcache.overallAccesses::total   6050728001                       # number of overall (read+write) accesses (Count)
system.cpu0.dcache.demandMissRate::cpu0.data     0.015412                       # miss rate for demand accesses (Ratio)
system.cpu0.dcache.demandMissRate::total     0.015412                       # miss rate for demand accesses (Ratio)
system.cpu0.dcache.overallMissRate::cpu0.data     0.015412                       # miss rate for overall accesses (Ratio)
system.cpu0.dcache.overallMissRate::total     0.015412                       # miss rate for overall accesses (Ratio)
system.cpu0.dcache.demandAvgMissLatency::cpu0.data 45580.466527                       # average overall miss latency in ticks ((Tick/Count))
system.cpu0.dcache.demandAvgMissLatency::total 45580.466527                       # average overall miss latency in ticks ((Tick/Count))
system.cpu0.dcache.overallAvgMissLatency::cpu0.data 45580.451375                       # average overall miss latency ((Tick/Count))
system.cpu0.dcache.overallAvgMissLatency::total 45580.451375                       # average overall miss latency ((Tick/Count))
system.cpu0.dcache.blockedCycles::no_mshrs            0                       # number of cycles access was blocked (Cycle)
system.cpu0.dcache.blockedCycles::no_targets            0                       # number of cycles access was blocked (Cycle)
system.cpu0.dcache.blockedCauses::no_mshrs            0                       # number of times access was blocked (Count)
system.cpu0.dcache.blockedCauses::no_targets            0                       # number of times access was blocked (Count)
system.cpu0.dcache.avgBlocked::no_mshrs           nan                       # average number of cycles each access was blocked ((Cycle/Count))
system.cpu0.dcache.avgBlocked::no_targets          nan                       # average number of cycles each access was blocked ((Cycle/Count))
system.cpu0.dcache.writebacks::writebacks      6863636                       # number of writebacks (Count)
system.cpu0.dcache.writebacks::total          6863636                       # number of writebacks (Count)
system.cpu0.dcache.demandMshrHits::cpu0.data      1412473                       # number of demand (read+write) MSHR hits (Count)
system.cpu0.dcache.demandMshrHits::total      1412473                       # number of demand (read+write) MSHR hits (Count)
system.cpu0.dcache.overallMshrHits::cpu0.data      1412473                       # number of overall MSHR hits (Count)
system.cpu0.dcache.overallMshrHits::total      1412473                       # number of overall MSHR hits (Count)
system.cpu0.dcache.demandMshrMisses::cpu0.data     91841876                       # number of demand (read+write) MSHR misses (Count)
system.cpu0.dcache.demandMshrMisses::total     91841876                       # number of demand (read+write) MSHR misses (Count)
system.cpu0.dcache.overallMshrMisses::cpu0.data     91841899                       # number of overall MSHR misses (Count)
system.cpu0.dcache.overallMshrMisses::total     91841899                       # number of overall MSHR misses (Count)
system.cpu0.dcache.demandMshrMissLatency::cpu0.data 3415132594489                       # number of demand (read+write) MSHR miss ticks (Tick)
system.cpu0.dcache.demandMshrMissLatency::total 3415132594489                       # number of demand (read+write) MSHR miss ticks (Tick)
system.cpu0.dcache.overallMshrMissLatency::cpu0.data 3415146957075                       # number of overall MSHR miss ticks (Tick)
system.cpu0.dcache.overallMshrMissLatency::total 3415146957075                       # number of overall MSHR miss ticks (Tick)
system.cpu0.dcache.demandMshrMissRate::cpu0.data     0.015179                       # mshr miss ratio for demand accesses (Ratio)
system.cpu0.dcache.demandMshrMissRate::total     0.015179                       # mshr miss ratio for demand accesses (Ratio)
system.cpu0.dcache.overallMshrMissRate::cpu0.data     0.015179                       # mshr miss ratio for overall accesses (Ratio)
system.cpu0.dcache.overallMshrMissRate::total     0.015179                       # mshr miss ratio for overall accesses (Ratio)
system.cpu0.dcache.demandAvgMshrMissLatency::cpu0.data 37184.917635                       # average overall mshr miss latency ((Tick/Count))
system.cpu0.dcache.demandAvgMshrMissLatency::total 37184.917635                       # average overall mshr miss latency ((Tick/Count))
system.cpu0.dcache.overallAvgMshrMissLatency::cpu0.data 37185.064706                       # average overall mshr miss latency ((Tick/Count))
system.cpu0.dcache.overallAvgMshrMissLatency::total 37185.064706                       # average overall mshr miss latency ((Tick/Count))
system.cpu0.dcache.replacements              91841533                       # number of replacements (Count)
system.cpu0.dcache.LoadLockedReq.hits::cpu0.data      4247725                       # number of LoadLockedReq hits (Count)
system.cpu0.dcache.LoadLockedReq.hits::total      4247725                       # number of LoadLockedReq hits (Count)
system.cpu0.dcache.LoadLockedReq.misses::cpu0.data          146                       # number of LoadLockedReq misses (Count)
system.cpu0.dcache.LoadLockedReq.misses::total          146                       # number of LoadLockedReq misses (Count)
system.cpu0.dcache.LoadLockedReq.missLatency::cpu0.data     27152468                       # number of LoadLockedReq miss ticks (Tick)
system.cpu0.dcache.LoadLockedReq.missLatency::total     27152468                       # number of LoadLockedReq miss ticks (Tick)
system.cpu0.dcache.LoadLockedReq.accesses::cpu0.data      4247871                       # number of LoadLockedReq accesses(hits+misses) (Count)
system.cpu0.dcache.LoadLockedReq.accesses::total      4247871                       # number of LoadLockedReq accesses(hits+misses) (Count)
system.cpu0.dcache.LoadLockedReq.missRate::cpu0.data     0.000034                       # miss rate for LoadLockedReq accesses (Ratio)
system.cpu0.dcache.LoadLockedReq.missRate::total     0.000034                       # miss rate for LoadLockedReq accesses (Ratio)
system.cpu0.dcache.LoadLockedReq.avgMissLatency::cpu0.data 185975.808219                       # average LoadLockedReq miss latency ((Tick/Count))
system.cpu0.dcache.LoadLockedReq.avgMissLatency::total 185975.808219                       # average LoadLockedReq miss latency ((Tick/Count))
system.cpu0.dcache.LoadLockedReq.mshrMisses::cpu0.data          146                       # number of LoadLockedReq MSHR misses (Count)
system.cpu0.dcache.LoadLockedReq.mshrMisses::total          146                       # number of LoadLockedReq MSHR misses (Count)
system.cpu0.dcache.LoadLockedReq.mshrMissLatency::cpu0.data     26909232                       # number of LoadLockedReq MSHR miss ticks (Tick)
system.cpu0.dcache.LoadLockedReq.mshrMissLatency::total     26909232                       # number of LoadLockedReq MSHR miss ticks (Tick)
system.cpu0.dcache.LoadLockedReq.mshrMissRate::cpu0.data     0.000034                       # mshr miss rate for LoadLockedReq accesses (Ratio)
system.cpu0.dcache.LoadLockedReq.mshrMissRate::total     0.000034                       # mshr miss rate for LoadLockedReq accesses (Ratio)
system.cpu0.dcache.LoadLockedReq.avgMshrMissLatency::cpu0.data 184309.808219                       # average LoadLockedReq mshr miss latency ((Tick/Count))
system.cpu0.dcache.LoadLockedReq.avgMshrMissLatency::total 184309.808219                       # average LoadLockedReq mshr miss latency ((Tick/Count))
system.cpu0.dcache.ReadReq.hits::cpu0.data   3488280956                       # number of ReadReq hits (Count)
system.cpu0.dcache.ReadReq.hits::total     3488280956                       # number of ReadReq hits (Count)
system.cpu0.dcache.ReadReq.misses::cpu0.data     89276243                       # number of ReadReq misses (Count)
system.cpu0.dcache.ReadReq.misses::total     89276243                       # number of ReadReq misses (Count)
system.cpu0.dcache.ReadReq.missLatency::cpu0.data 2727880739402                       # number of ReadReq miss ticks (Tick)
system.cpu0.dcache.ReadReq.missLatency::total 2727880739402                       # number of ReadReq miss ticks (Tick)
system.cpu0.dcache.ReadReq.accesses::cpu0.data   3577557199                       # number of ReadReq accesses(hits+misses) (Count)
system.cpu0.dcache.ReadReq.accesses::total   3577557199                       # number of ReadReq accesses(hits+misses) (Count)
system.cpu0.dcache.ReadReq.missRate::cpu0.data     0.024955                       # miss rate for ReadReq accesses (Ratio)
system.cpu0.dcache.ReadReq.missRate::total     0.024955                       # miss rate for ReadReq accesses (Ratio)
system.cpu0.dcache.ReadReq.avgMissLatency::cpu0.data 30555.505560                       # average ReadReq miss latency ((Tick/Count))
system.cpu0.dcache.ReadReq.avgMissLatency::total 30555.505560                       # average ReadReq miss latency ((Tick/Count))
system.cpu0.dcache.ReadReq.mshrHits::cpu0.data          180                       # number of ReadReq MSHR hits (Count)
system.cpu0.dcache.ReadReq.mshrHits::total          180                       # number of ReadReq MSHR hits (Count)
system.cpu0.dcache.ReadReq.mshrMisses::cpu0.data     89276063                       # number of ReadReq MSHR misses (Count)
system.cpu0.dcache.ReadReq.mshrMisses::total     89276063                       # number of ReadReq MSHR misses (Count)
system.cpu0.dcache.ReadReq.mshrMissLatency::cpu0.data 2579054980194                       # number of ReadReq MSHR miss ticks (Tick)
system.cpu0.dcache.ReadReq.mshrMissLatency::total 2579054980194                       # number of ReadReq MSHR miss ticks (Tick)
system.cpu0.dcache.ReadReq.mshrMissRate::cpu0.data     0.024954                       # mshr miss rate for ReadReq accesses (Ratio)
system.cpu0.dcache.ReadReq.mshrMissRate::total     0.024954                       # mshr miss rate for ReadReq accesses (Ratio)
system.cpu0.dcache.ReadReq.avgMshrMissLatency::cpu0.data 28888.538467                       # average ReadReq mshr miss latency ((Tick/Count))
system.cpu0.dcache.ReadReq.avgMshrMissLatency::total 28888.538467                       # average ReadReq mshr miss latency ((Tick/Count))
system.cpu0.dcache.SoftPFReq.hits::cpu0.data         2530                       # number of SoftPFReq hits (Count)
system.cpu0.dcache.SoftPFReq.hits::total         2530                       # number of SoftPFReq hits (Count)
system.cpu0.dcache.SoftPFReq.misses::cpu0.data           31                       # number of SoftPFReq misses (Count)
system.cpu0.dcache.SoftPFReq.misses::total           31                       # number of SoftPFReq misses (Count)
system.cpu0.dcache.SoftPFReq.accesses::cpu0.data         2561                       # number of SoftPFReq accesses(hits+misses) (Count)
system.cpu0.dcache.SoftPFReq.accesses::total         2561                       # number of SoftPFReq accesses(hits+misses) (Count)
system.cpu0.dcache.SoftPFReq.missRate::cpu0.data     0.012105                       # miss rate for SoftPFReq accesses (Ratio)
system.cpu0.dcache.SoftPFReq.missRate::total     0.012105                       # miss rate for SoftPFReq accesses (Ratio)
system.cpu0.dcache.SoftPFReq.mshrMisses::cpu0.data           23                       # number of SoftPFReq MSHR misses (Count)
system.cpu0.dcache.SoftPFReq.mshrMisses::total           23                       # number of SoftPFReq MSHR misses (Count)
system.cpu0.dcache.SoftPFReq.mshrMissLatency::cpu0.data     14362586                       # number of SoftPFReq MSHR miss ticks (Tick)
system.cpu0.dcache.SoftPFReq.mshrMissLatency::total     14362586                       # number of SoftPFReq MSHR miss ticks (Tick)
system.cpu0.dcache.SoftPFReq.mshrMissRate::cpu0.data     0.008981                       # mshr miss rate for SoftPFReq accesses (Ratio)
system.cpu0.dcache.SoftPFReq.mshrMissRate::total     0.008981                       # mshr miss rate for SoftPFReq accesses (Ratio)
system.cpu0.dcache.SoftPFReq.avgMshrMissLatency::cpu0.data 624460.260870                       # average SoftPFReq mshr miss latency ((Tick/Count))
system.cpu0.dcache.SoftPFReq.avgMshrMissLatency::total 624460.260870                       # average SoftPFReq mshr miss latency ((Tick/Count))
system.cpu0.dcache.StoreCondReq.hits::cpu0.data      4247871                       # number of StoreCondReq hits (Count)
system.cpu0.dcache.StoreCondReq.hits::total      4247871                       # number of StoreCondReq hits (Count)
system.cpu0.dcache.StoreCondReq.accesses::cpu0.data      4247871                       # number of StoreCondReq accesses(hits+misses) (Count)
system.cpu0.dcache.StoreCondReq.accesses::total      4247871                       # number of StoreCondReq accesses(hits+misses) (Count)
system.cpu0.dcache.WriteReq.hits::cpu0.data   2469190135                       # number of WriteReq hits (Count)
system.cpu0.dcache.WriteReq.hits::total    2469190135                       # number of WriteReq hits (Count)
system.cpu0.dcache.WriteReq.misses::cpu0.data      3978106                       # number of WriteReq misses (Count)
system.cpu0.dcache.WriteReq.misses::total      3978106                       # number of WriteReq misses (Count)
system.cpu0.dcache.WriteReq.missLatency::cpu0.data 1522695993707                       # number of WriteReq miss ticks (Tick)
system.cpu0.dcache.WriteReq.missLatency::total 1522695993707                       # number of WriteReq miss ticks (Tick)
system.cpu0.dcache.WriteReq.accesses::cpu0.data   2473168241                       # number of WriteReq accesses(hits+misses) (Count)
system.cpu0.dcache.WriteReq.accesses::total   2473168241                       # number of WriteReq accesses(hits+misses) (Count)
system.cpu0.dcache.WriteReq.missRate::cpu0.data     0.001609                       # miss rate for WriteReq accesses (Ratio)
system.cpu0.dcache.WriteReq.missRate::total     0.001609                       # miss rate for WriteReq accesses (Ratio)
system.cpu0.dcache.WriteReq.avgMissLatency::cpu0.data 382769.085014                       # average WriteReq miss latency ((Tick/Count))
system.cpu0.dcache.WriteReq.avgMissLatency::total 382769.085014                       # average WriteReq miss latency ((Tick/Count))
system.cpu0.dcache.WriteReq.mshrHits::cpu0.data      1412293                       # number of WriteReq MSHR hits (Count)
system.cpu0.dcache.WriteReq.mshrHits::total      1412293                       # number of WriteReq MSHR hits (Count)
system.cpu0.dcache.WriteReq.mshrMisses::cpu0.data      2565813                       # number of WriteReq MSHR misses (Count)
system.cpu0.dcache.WriteReq.mshrMisses::total      2565813                       # number of WriteReq MSHR misses (Count)
system.cpu0.dcache.WriteReq.mshrMissLatency::cpu0.data 836077614295                       # number of WriteReq MSHR miss ticks (Tick)
system.cpu0.dcache.WriteReq.mshrMissLatency::total 836077614295                       # number of WriteReq MSHR miss ticks (Tick)
system.cpu0.dcache.WriteReq.mshrMissRate::cpu0.data     0.001037                       # mshr miss rate for WriteReq accesses (Ratio)
system.cpu0.dcache.WriteReq.mshrMissRate::total     0.001037                       # mshr miss rate for WriteReq accesses (Ratio)
system.cpu0.dcache.WriteReq.avgMshrMissLatency::cpu0.data 325852.902879                       # average WriteReq mshr miss latency ((Tick/Count))
system.cpu0.dcache.WriteReq.avgMshrMissLatency::total 325852.902879                       # average WriteReq mshr miss latency ((Tick/Count))
system.cpu0.dcache.power_state.pwrStateResidencyTicks::UNDEFINED 19037371513363                       # Cumulative time (in ticks) in various power states (Tick)
system.cpu0.dcache.tags.tagsInUse          511.990345                       # Average ticks per tags in use ((Tick/Count))
system.cpu0.dcache.tags.totalRefs          6057811262                       # Total number of references to valid blocks. (Count)
system.cpu0.dcache.tags.sampledRefs          91842045                       # Sample count of references to valid blocks. (Count)
system.cpu0.dcache.tags.avgRefs             65.959020                       # Average number of references to valid blocks. ((Count/Count))
system.cpu0.dcache.tags.warmupTick             952952                       # The tick when the warmup percentage was hit. (Tick)
system.cpu0.dcache.tags.occupancies::cpu0.data   511.990345                       # Average occupied blocks per tick, per requestor ((Count/Tick))
system.cpu0.dcache.tags.avgOccs::cpu0.data     0.999981                       # Average percentage of cache occupancy ((Ratio/Tick))
system.cpu0.dcache.tags.avgOccs::total       0.999981                       # Average percentage of cache occupancy ((Ratio/Tick))
system.cpu0.dcache.tags.occupanciesTaskId::1024          512                       # Occupied blocks per task id (Count)
system.cpu0.dcache.tags.ageTaskId_1024::0            1                       # Occupied blocks per task id, per block age (Count)
system.cpu0.dcache.tags.ageTaskId_1024::1           65                       # Occupied blocks per task id, per block age (Count)
system.cpu0.dcache.tags.ageTaskId_1024::2          403                       # Occupied blocks per task id, per block age (Count)
system.cpu0.dcache.tags.ageTaskId_1024::3           35                       # Occupied blocks per task id, per block age (Count)
system.cpu0.dcache.tags.ageTaskId_1024::4            8                       # Occupied blocks per task id, per block age (Count)
system.cpu0.dcache.tags.ratioOccsTaskId::1024            1                       # Ratio of occupied blocks and all blocks, per task id (Ratio)
system.cpu0.dcache.tags.tagAccesses       12210289531                       # Number of tag accesses (Count)
system.cpu0.dcache.tags.dataAccesses      12210289531                       # Number of data accesses (Count)
system.cpu0.dcache.tags.power_state.pwrStateResidencyTicks::UNDEFINED 19037371513363                       # Cumulative time (in ticks) in various power states (Tick)
system.cpu0.executeStats0.numInsts                  0                       # Number of executed instructions (Count)
system.cpu0.executeStats0.numNop                    0                       # Number of nop insts executed (Count)
system.cpu0.executeStats0.numBranches               0                       # Number of branches executed (Count)
system.cpu0.executeStats0.numLoadInsts              0                       # Number of load instructions executed (Count)
system.cpu0.executeStats0.numStoreInsts             0                       # Number of stores executed (Count)
system.cpu0.executeStats0.instRate                  0                       # Inst execution rate ((Count/Cycle))
system.cpu0.executeStats0.numFpRegWrites            0                       # Number of times the floating registers were written (Count)
system.cpu0.executeStats0.numMemRefs                0                       # Number of memory refs (Count)
system.cpu0.executeStats0.numVecAluAccesses            0                       # Number of vector alu accesses (Count)
system.cpu0.executeStats0.numDiscardedOps      3376204                       # Number of ops (including micro ops) which were discarded before commit (Count)
system.cpu0.fetch2.intInstructions         9351536443                       # Number of integer instructions successfully decoded (Count)
system.cpu0.fetch2.fpInstructions                   0                       # Number of floating point instructions successfully decoded (Count)
system.cpu0.fetch2.vecInstructions                  0                       # Number of SIMD instructions successfully decoded (Count)
system.cpu0.fetch2.loadInstructions        3840277015                       # Number of memory load instructions successfully decoded (Count)
system.cpu0.fetch2.storeInstructions       1726360097                       # Number of memory store instructions successfully decoded (Count)
system.cpu0.fetch2.amoInstructions                  0                       # Number of memory atomic instructions successfully decoded (Count)
system.cpu0.fetchStats0.numInsts                    0                       # Number of instructions fetched (thread level) (Count)
system.cpu0.fetchStats0.numOps                      0                       # Number of ops (including micro ops) fetched (thread level) (Count)
system.cpu0.fetchStats0.fetchRate                   0                       # Number of inst fetches per cycle ((Count/Cycle))
system.cpu0.fetchStats0.branchRate                  0                       # Number of branch fetches per cycle (Ratio)
system.cpu0.fetchStats0.numFetchSuspends            0                       # Number of times Execute suspended instruction fetching (Count)
system.cpu0.icache.demandHits::cpu0.inst   4836719939                       # number of demand (read+write) hits (Count)
system.cpu0.icache.demandHits::total       4836719939                       # number of demand (read+write) hits (Count)
system.cpu0.icache.overallHits::cpu0.inst   4836719939                       # number of overall hits (Count)
system.cpu0.icache.overallHits::total      4836719939                       # number of overall hits (Count)
system.cpu0.icache.demandMisses::cpu0.inst        13064                       # number of demand (read+write) misses (Count)
system.cpu0.icache.demandMisses::total          13064                       # number of demand (read+write) misses (Count)
system.cpu0.icache.overallMisses::cpu0.inst        13064                       # number of overall misses (Count)
system.cpu0.icache.overallMisses::total         13064                       # number of overall misses (Count)
system.cpu0.icache.demandMissLatency::cpu0.inst   1269063838                       # number of demand (read+write) miss ticks (Tick)
system.cpu0.icache.demandMissLatency::total   1269063838                       # number of demand (read+write) miss ticks (Tick)
system.cpu0.icache.overallMissLatency::cpu0.inst   1269063838                       # number of overall miss ticks (Tick)
system.cpu0.icache.overallMissLatency::total   1269063838                       # number of overall miss ticks (Tick)
system.cpu0.icache.demandAccesses::cpu0.inst   4836733003                       # number of demand (read+write) accesses (Count)
system.cpu0.icache.demandAccesses::total   4836733003                       # number of demand (read+write) accesses (Count)
system.cpu0.icache.overallAccesses::cpu0.inst   4836733003                       # number of overall (read+write) accesses (Count)
system.cpu0.icache.overallAccesses::total   4836733003                       # number of overall (read+write) accesses (Count)
system.cpu0.icache.demandMissRate::cpu0.inst     0.000003                       # miss rate for demand accesses (Ratio)
system.cpu0.icache.demandMissRate::total     0.000003                       # miss rate for demand accesses (Ratio)
system.cpu0.icache.overallMissRate::cpu0.inst     0.000003                       # miss rate for overall accesses (Ratio)
system.cpu0.icache.overallMissRate::total     0.000003                       # miss rate for overall accesses (Ratio)
system.cpu0.icache.demandAvgMissLatency::cpu0.inst 97142.057410                       # average overall miss latency in ticks ((Tick/Count))
system.cpu0.icache.demandAvgMissLatency::total 97142.057410                       # average overall miss latency in ticks ((Tick/Count))
system.cpu0.icache.overallAvgMissLatency::cpu0.inst 97142.057410                       # average overall miss latency ((Tick/Count))
system.cpu0.icache.overallAvgMissLatency::total 97142.057410                       # average overall miss latency ((Tick/Count))
system.cpu0.icache.blockedCycles::no_mshrs            0                       # number of cycles access was blocked (Cycle)
system.cpu0.icache.blockedCycles::no_targets            0                       # number of cycles access was blocked (Cycle)
system.cpu0.icache.blockedCauses::no_mshrs            0                       # number of times access was blocked (Count)
system.cpu0.icache.blockedCauses::no_targets            0                       # number of times access was blocked (Count)
system.cpu0.icache.avgBlocked::no_mshrs           nan                       # average number of cycles each access was blocked ((Cycle/Count))
system.cpu0.icache.avgBlocked::no_targets          nan                       # average number of cycles each access was blocked ((Cycle/Count))
system.cpu0.icache.writebacks::writebacks        12553                       # number of writebacks (Count)
system.cpu0.icache.writebacks::total            12553                       # number of writebacks (Count)
system.cpu0.icache.demandMshrMisses::cpu0.inst        13064                       # number of demand (read+write) MSHR misses (Count)
system.cpu0.icache.demandMshrMisses::total        13064                       # number of demand (read+write) MSHR misses (Count)
system.cpu0.icache.overallMshrMisses::cpu0.inst        13064                       # number of overall MSHR misses (Count)
system.cpu0.icache.overallMshrMisses::total        13064                       # number of overall MSHR misses (Count)
system.cpu0.icache.demandMshrMissLatency::cpu0.inst   1247299214                       # number of demand (read+write) MSHR miss ticks (Tick)
system.cpu0.icache.demandMshrMissLatency::total   1247299214                       # number of demand (read+write) MSHR miss ticks (Tick)
system.cpu0.icache.overallMshrMissLatency::cpu0.inst   1247299214                       # number of overall MSHR miss ticks (Tick)
system.cpu0.icache.overallMshrMissLatency::total   1247299214                       # number of overall MSHR miss ticks (Tick)
system.cpu0.icache.demandMshrMissRate::cpu0.inst     0.000003                       # mshr miss ratio for demand accesses (Ratio)
system.cpu0.icache.demandMshrMissRate::total     0.000003                       # mshr miss ratio for demand accesses (Ratio)
system.cpu0.icache.overallMshrMissRate::cpu0.inst     0.000003                       # mshr miss ratio for overall accesses (Ratio)
system.cpu0.icache.overallMshrMissRate::total     0.000003                       # mshr miss ratio for overall accesses (Ratio)
system.cpu0.icache.demandAvgMshrMissLatency::cpu0.inst 95476.057410                       # average overall mshr miss latency ((Tick/Count))
system.cpu0.icache.demandAvgMshrMissLatency::total 95476.057410                       # average overall mshr miss latency ((Tick/Count))
system.cpu0.icache.overallAvgMshrMissLatency::cpu0.inst 95476.057410                       # average overall mshr miss latency ((Tick/Count))
system.cpu0.icache.overallAvgMshrMissLatency::total 95476.057410                       # average overall mshr miss latency ((Tick/Count))
system.cpu0.icache.replacements                 12553                       # number of replacements (Count)
system.cpu0.icache.ReadReq.hits::cpu0.inst   4836719939                       # number of ReadReq hits (Count)
system.cpu0.icache.ReadReq.hits::total     4836719939                       # number of ReadReq hits (Count)
system.cpu0.icache.ReadReq.misses::cpu0.inst        13064                       # number of ReadReq misses (Count)
system.cpu0.icache.ReadReq.misses::total        13064                       # number of ReadReq misses (Count)
system.cpu0.icache.ReadReq.missLatency::cpu0.inst   1269063838                       # number of ReadReq miss ticks (Tick)
system.cpu0.icache.ReadReq.missLatency::total   1269063838                       # number of ReadReq miss ticks (Tick)
system.cpu0.icache.ReadReq.accesses::cpu0.inst   4836733003                       # number of ReadReq accesses(hits+misses) (Count)
system.cpu0.icache.ReadReq.accesses::total   4836733003                       # number of ReadReq accesses(hits+misses) (Count)
system.cpu0.icache.ReadReq.missRate::cpu0.inst     0.000003                       # miss rate for ReadReq accesses (Ratio)
system.cpu0.icache.ReadReq.missRate::total     0.000003                       # miss rate for ReadReq accesses (Ratio)
system.cpu0.icache.ReadReq.avgMissLatency::cpu0.inst 97142.057410                       # average ReadReq miss latency ((Tick/Count))
system.cpu0.icache.ReadReq.avgMissLatency::total 97142.057410                       # average ReadReq miss latency ((Tick/Count))
system.cpu0.icache.ReadReq.mshrMisses::cpu0.inst        13064                       # number of ReadReq MSHR misses (Count)
system.cpu0.icache.ReadReq.mshrMisses::total        13064                       # number of ReadReq MSHR misses (Count)
system.cpu0.icache.ReadReq.mshrMissLatency::cpu0.inst   1247299214                       # number of ReadReq MSHR miss ticks (Tick)
system.cpu0.icache.ReadReq.mshrMissLatency::total   1247299214                       # number of ReadReq MSHR miss ticks (Tick)
system.cpu0.icache.ReadReq.mshrMissRate::cpu0.inst     0.000003                       # mshr miss rate for ReadReq accesses (Ratio)
system.cpu0.icache.ReadReq.mshrMissRate::total     0.000003                       # mshr miss rate for ReadReq accesses (Ratio)
system.cpu0.icache.ReadReq.avgMshrMissLatency::cpu0.inst 95476.057410                       # average ReadReq mshr miss latency ((Tick/Count))
system.cpu0.icache.ReadReq.avgMshrMissLatency::total 95476.057410                       # average ReadReq mshr miss latency ((Tick/Count))
system.cpu0.icache.power_state.pwrStateResidencyTicks::UNDEFINED 19037371513363                       # Cumulative time (in ticks) in various power states (Tick)
system.cpu0.icache.tags.tagsInUse          506.001009                       # Average ticks per tags in use ((Tick/Count))
system.cpu0.icache.tags.totalRefs          4836733003                       # Total number of references to valid blocks. (Count)
system.cpu0.icache.tags.sampledRefs             13064                       # Sample count of references to valid blocks. (Count)
system.cpu0.icache.tags.avgRefs          370233.695882                       # Average number of references to valid blocks. ((Count/Count))
system.cpu0.icache.tags.warmupTick             448154                       # The tick when the warmup percentage was hit. (Tick)
system.cpu0.icache.tags.occupancies::cpu0.inst   506.001009                       # Average occupied blocks per tick, per requestor ((Count/Tick))
system.cpu0.icache.tags.avgOccs::cpu0.inst     0.988283                       # Average percentage of cache occupancy ((Ratio/Tick))
system.cpu0.icache.tags.avgOccs::total       0.988283                       # Average percentage of cache occupancy ((Ratio/Tick))
system.cpu0.icache.tags.occupanciesTaskId::1024          511                       # Occupied blocks per task id (Count)
system.cpu0.icache.tags.ageTaskId_1024::0            9                       # Occupied blocks per task id, per block age (Count)
system.cpu0.icache.tags.ageTaskId_1024::1           50                       # Occupied blocks per task id, per block age (Count)
system.cpu0.icache.tags.ageTaskId_1024::3          207                       # Occupied blocks per task id, per block age (Count)
system.cpu0.icache.tags.ageTaskId_1024::4          245                       # Occupied blocks per task id, per block age (Count)
system.cpu0.icache.tags.ratioOccsTaskId::1024     0.998047                       # Ratio of occupied blocks and all blocks, per task id (Ratio)
system.cpu0.icache.tags.tagAccesses        9673479070                       # Number of tag accesses (Count)
system.cpu0.icache.tags.dataAccesses       9673479070                       # Number of data accesses (Count)
system.cpu0.icache.tags.power_state.pwrStateResidencyTicks::UNDEFINED 19037371513363                       # Cumulative time (in ticks) in various power states (Tick)
system.cpu0.mmu.alignFaults                         0                       # Number of MMU faults due to alignment restrictions (Count)
system.cpu0.mmu.prefetchFaults                      0                       # Number of MMU faults due to prefetch (Count)
system.cpu0.mmu.domainFaults                        0                       # Number of MMU faults due to domain restrictions (Count)
system.cpu0.mmu.permsFaults                         0                       # Number of MMU faults due to permissions restrictions (Count)
system.cpu0.mmu.dtb.readHits                        0                       # Read hits (Count)
system.cpu0.mmu.dtb.readMisses                      0                       # Read misses (Count)
system.cpu0.mmu.dtb.writeHits                       0                       # Write hits (Count)
system.cpu0.mmu.dtb.writeMisses                     0                       # Write misses (Count)
system.cpu0.mmu.dtb.inserts                         0                       # Number of times an entry is inserted into the TLB (Count)
system.cpu0.mmu.dtb.flushTlb                      197                       # Number of times a TLB invalidation was requested (Count)
system.cpu0.mmu.dtb.flushedEntries                  0                       # Number of entries that have been flushed from TLB (Count)
system.cpu0.mmu.dtb.readAccesses                    0                       # Read accesses (Count)
system.cpu0.mmu.dtb.writeAccesses                   0                       # Write accesses (Count)
system.cpu0.mmu.dtb.hits                            0                       # Total TLB (inst and data) hits (Count)
system.cpu0.mmu.dtb.misses                          0                       # Total TLB (inst and data) misses (Count)
system.cpu0.mmu.dtb.accesses                        0                       # Total TLB (inst and data) accesses (Count)
system.cpu0.mmu.dtb_walker.walks                    0                       # Table walker walks requested (Count)
system.cpu0.mmu.dtb_walker.requestOrigin_Requested::Data            0                       # Table walker requests started/completed, data/inst (Count)
system.cpu0.mmu.dtb_walker.requestOrigin_Requested::Inst            0                       # Table walker requests started/completed, data/inst (Count)
system.cpu0.mmu.dtb_walker.requestOrigin_Requested::total            0                       # Table walker requests started/completed, data/inst (Count)
system.cpu0.mmu.dtb_walker.requestOrigin_Completed::Data            0                       # Table walker requests started/completed, data/inst (Count)
system.cpu0.mmu.dtb_walker.requestOrigin_Completed::Inst            0                       # Table walker requests started/completed, data/inst (Count)
system.cpu0.mmu.dtb_walker.requestOrigin_Completed::total            0                       # Table walker requests started/completed, data/inst (Count)
system.cpu0.mmu.dtb_walker.requestOrigin::total            0                       # Table walker requests started/completed, data/inst (Count)
system.cpu0.mmu.dtb_walker.power_state.pwrStateResidencyTicks::UNDEFINED 19037371513363                       # Cumulative time (in ticks) in various power states (Tick)
system.cpu0.mmu.itb.instHits                        0                       # Inst hits (Count)
system.cpu0.mmu.itb.instMisses                      0                       # Inst misses (Count)
system.cpu0.mmu.itb.inserts                         0                       # Number of times an entry is inserted into the TLB (Count)
system.cpu0.mmu.itb.flushTlb                      197                       # Number of times a TLB invalidation was requested (Count)
system.cpu0.mmu.itb.flushedEntries                  0                       # Number of entries that have been flushed from TLB (Count)
system.cpu0.mmu.itb.instAccesses                    0                       # Inst accesses (Count)
system.cpu0.mmu.itb.hits                            0                       # Total TLB (inst and data) hits (Count)
system.cpu0.mmu.itb.misses                          0                       # Total TLB (inst and data) misses (Count)
system.cpu0.mmu.itb.accesses                        0                       # Total TLB (inst and data) accesses (Count)
system.cpu0.mmu.itb_walker.walks                    0                       # Table walker walks requested (Count)
system.cpu0.mmu.itb_walker.requestOrigin_Requested::Data            0                       # Table walker requests started/completed, data/inst (Count)
system.cpu0.mmu.itb_walker.requestOrigin_Requested::Inst            0                       # Table walker requests started/completed, data/inst (Count)
system.cpu0.mmu.itb_walker.requestOrigin_Requested::total            0                       # Table walker requests started/completed, data/inst (Count)
system.cpu0.mmu.itb_walker.requestOrigin_Completed::Data            0                       # Table walker requests started/completed, data/inst (Count)
system.cpu0.mmu.itb_walker.requestOrigin_Completed::Inst            0                       # Table walker requests started/completed, data/inst (Count)
system.cpu0.mmu.itb_walker.requestOrigin_Completed::total            0                       # Table walker requests started/completed, data/inst (Count)
system.cpu0.mmu.itb_walker.requestOrigin::total            0                       # Table walker requests started/completed, data/inst (Count)
system.cpu0.mmu.itb_walker.power_state.pwrStateResidencyTicks::UNDEFINED 19037371513363                       # Cumulative time (in ticks) in various power states (Tick)
system.cpu0.mmu.l2_shared.instHits                  0                       # Inst hits (Count)
system.cpu0.mmu.l2_shared.instMisses                0                       # Inst misses (Count)
system.cpu0.mmu.l2_shared.inserts                   0                       # Number of times an entry is inserted into the TLB (Count)
system.cpu0.mmu.l2_shared.flushTlb                197                       # Number of times a TLB invalidation was requested (Count)
system.cpu0.mmu.l2_shared.flushedEntries            0                       # Number of entries that have been flushed from TLB (Count)
system.cpu0.mmu.l2_shared.instAccesses              0                       # Inst accesses (Count)
system.cpu0.mmu.l2_shared.hits                      0                       # Total TLB (inst and data) hits (Count)
system.cpu0.mmu.l2_shared.misses                    0                       # Total TLB (inst and data) misses (Count)
system.cpu0.mmu.l2_shared.accesses                  0                       # Total TLB (inst and data) accesses (Count)
system.cpu0.mmu.stage2_dtb.readHits                 0                       # Read hits (Count)
system.cpu0.mmu.stage2_dtb.readMisses               0                       # Read misses (Count)
system.cpu0.mmu.stage2_dtb.writeHits                0                       # Write hits (Count)
system.cpu0.mmu.stage2_dtb.writeMisses              0                       # Write misses (Count)
system.cpu0.mmu.stage2_dtb.inserts                  0                       # Number of times an entry is inserted into the TLB (Count)
system.cpu0.mmu.stage2_dtb.flushTlb               197                       # Number of times a TLB invalidation was requested (Count)
system.cpu0.mmu.stage2_dtb.flushedEntries            0                       # Number of entries that have been flushed from TLB (Count)
system.cpu0.mmu.stage2_dtb.readAccesses             0                       # Read accesses (Count)
system.cpu0.mmu.stage2_dtb.writeAccesses            0                       # Write accesses (Count)
system.cpu0.mmu.stage2_dtb.hits                     0                       # Total TLB (inst and data) hits (Count)
system.cpu0.mmu.stage2_dtb.misses                   0                       # Total TLB (inst and data) misses (Count)
system.cpu0.mmu.stage2_dtb.accesses                 0                       # Total TLB (inst and data) accesses (Count)
system.cpu0.mmu.stage2_dtb_walker.walks             0                       # Table walker walks requested (Count)
system.cpu0.mmu.stage2_dtb_walker.requestOrigin_Requested::Data            0                       # Table walker requests started/completed, data/inst (Count)
system.cpu0.mmu.stage2_dtb_walker.requestOrigin_Requested::Inst            0                       # Table walker requests started/completed, data/inst (Count)
system.cpu0.mmu.stage2_dtb_walker.requestOrigin_Requested::total            0                       # Table walker requests started/completed, data/inst (Count)
system.cpu0.mmu.stage2_dtb_walker.requestOrigin_Completed::Data            0                       # Table walker requests started/completed, data/inst (Count)
system.cpu0.mmu.stage2_dtb_walker.requestOrigin_Completed::Inst            0                       # Table walker requests started/completed, data/inst (Count)
system.cpu0.mmu.stage2_dtb_walker.requestOrigin_Completed::total            0                       # Table walker requests started/completed, data/inst (Count)
system.cpu0.mmu.stage2_dtb_walker.requestOrigin::total            0                       # Table walker requests started/completed, data/inst (Count)
system.cpu0.mmu.stage2_dtb_walker.power_state.pwrStateResidencyTicks::UNDEFINED 19037371513363                       # Cumulative time (in ticks) in various power states (Tick)
system.cpu0.mmu.stage2_itb.instHits                 0                       # Inst hits (Count)
system.cpu0.mmu.stage2_itb.instMisses               0                       # Inst misses (Count)
system.cpu0.mmu.stage2_itb.inserts                  0                       # Number of times an entry is inserted into the TLB (Count)
system.cpu0.mmu.stage2_itb.flushTlb               197                       # Number of times a TLB invalidation was requested (Count)
system.cpu0.mmu.stage2_itb.flushedEntries            0                       # Number of entries that have been flushed from TLB (Count)
system.cpu0.mmu.stage2_itb.instAccesses             0                       # Inst accesses (Count)
system.cpu0.mmu.stage2_itb.hits                     0                       # Total TLB (inst and data) hits (Count)
system.cpu0.mmu.stage2_itb.misses                   0                       # Total TLB (inst and data) misses (Count)
system.cpu0.mmu.stage2_itb.accesses                 0                       # Total TLB (inst and data) accesses (Count)
system.cpu0.mmu.stage2_itb_walker.walks             0                       # Table walker walks requested (Count)
system.cpu0.mmu.stage2_itb_walker.requestOrigin_Requested::Data            0                       # Table walker requests started/completed, data/inst (Count)
system.cpu0.mmu.stage2_itb_walker.requestOrigin_Requested::Inst            0                       # Table walker requests started/completed, data/inst (Count)
system.cpu0.mmu.stage2_itb_walker.requestOrigin_Requested::total            0                       # Table walker requests started/completed, data/inst (Count)
system.cpu0.mmu.stage2_itb_walker.requestOrigin_Completed::Data            0                       # Table walker requests started/completed, data/inst (Count)
system.cpu0.mmu.stage2_itb_walker.requestOrigin_Completed::Inst            0                       # Table walker requests started/completed, data/inst (Count)
system.cpu0.mmu.stage2_itb_walker.requestOrigin_Completed::total            0                       # Table walker requests started/completed, data/inst (Count)
[...]
system.l2.ReadSharedReq.mshrHits::total            38                       # number of ReadSharedReq MSHR hits (Count)
system.l2.ReadSharedReq.mshrMisses::cpu0.data      8570303                       # number of ReadSharedReq MSHR misses (Count)
system.l2.ReadSharedReq.mshrMisses::total      8570303                       # number of ReadSharedReq MSHR misses (Count)
system.l2.ReadSharedReq.mshrMissLatency::cpu0.data 797323240649                       # number of ReadSharedReq MSHR miss ticks (Tick)
system.l2.ReadSharedReq.mshrMissLatency::total 797323240649                       # number of ReadSharedReq MSHR miss ticks (Tick)
system.l2.ReadSharedReq.mshrMissRate::cpu0.data     0.095998                       # mshr miss rate for ReadSharedReq accesses (Ratio)
system.l2.ReadSharedReq.mshrMissRate::total     0.095998                       # mshr miss rate for ReadSharedReq accesses (Ratio)
system.l2.ReadSharedReq.avgMshrMissLatency::cpu0.data 93033.261560                       # average ReadSharedReq mshr miss latency ((Tick/Count))
system.l2.ReadSharedReq.avgMshrMissLatency::total 93033.261560                       # average ReadSharedReq mshr miss latency ((Tick/Count))
system.l2.WritebackClean.hits::writebacks        12435                       # number of WritebackClean hits (Count)
system.l2.WritebackClean.hits::total            12435                       # number of WritebackClean hits (Count)
system.l2.WritebackClean.accesses::writebacks        12435                       # number of WritebackClean accesses(hits+misses) (Count)
system.l2.WritebackClean.accesses::total        12435                       # number of WritebackClean accesses(hits+misses) (Count)
system.l2.WritebackDirty.hits::writebacks      6863636                       # number of WritebackDirty hits (Count)
system.l2.WritebackDirty.hits::total          6863636                       # number of WritebackDirty hits (Count)
system.l2.WritebackDirty.accesses::writebacks      6863636                       # number of WritebackDirty accesses(hits+misses) (Count)
system.l2.WritebackDirty.accesses::total      6863636                       # number of WritebackDirty accesses(hits+misses) (Count)
system.l2.power_state.pwrStateResidencyTicks::UNDEFINED 19037371513363                       # Cumulative time (in ticks) in various power states (Tick)
system.l2.tags.tagsInUse                  8191.302938                       # Average ticks per tags in use ((Tick/Count))
system.l2.tags.totalRefs                    183472741                       # Total number of references to valid blocks. (Count)
system.l2.tags.sampledRefs                   10957662                       # Sample count of references to valid blocks. (Count)
system.l2.tags.avgRefs                      16.743785                       # Average number of references to valid blocks. ((Count/Count))
system.l2.tags.warmupTick                      430000                       # The tick when the warmup percentage was hit. (Tick)
system.l2.tags.occupancies::writebacks       1.671919                       # Average occupied blocks per tick, per requestor ((Count/Tick))
system.l2.tags.occupancies::cpu0.inst        0.553179                       # Average occupied blocks per tick, per requestor ((Count/Tick))
system.l2.tags.occupancies::cpu0.data     8189.077841                       # Average occupied blocks per tick, per requestor ((Count/Tick))
system.l2.tags.avgOccs::writebacks           0.000204                       # Average percentage of cache occupancy ((Ratio/Tick))
system.l2.tags.avgOccs::cpu0.inst            0.000068                       # Average percentage of cache occupancy ((Ratio/Tick))
system.l2.tags.avgOccs::cpu0.data            0.999643                       # Average percentage of cache occupancy ((Ratio/Tick))
system.l2.tags.avgOccs::total                0.999915                       # Average percentage of cache occupancy ((Ratio/Tick))
system.l2.tags.occupanciesTaskId::1024           8192                       # Occupied blocks per task id (Count)
system.l2.tags.ageTaskId_1024::0                   15                       # Occupied blocks per task id, per block age (Count)
system.l2.tags.ageTaskId_1024::1                  127                       # Occupied blocks per task id, per block age (Count)
system.l2.tags.ageTaskId_1024::2                  620                       # Occupied blocks per task id, per block age (Count)
system.l2.tags.ageTaskId_1024::3                 5484                       # Occupied blocks per task id, per block age (Count)
system.l2.tags.ageTaskId_1024::4                 1946                       # Occupied blocks per task id, per block age (Count)
system.l2.tags.ratioOccsTaskId::1024                1                       # Ratio of occupied blocks and all blocks, per task id (Ratio)
system.l2.tags.tagAccesses                 1478746374                       # Number of tag accesses (Count)
system.l2.tags.dataAccesses                1478746374                       # Number of data accesses (Count)
system.l2.tags.power_state.pwrStateResidencyTicks::UNDEFINED 19037371513363                       # Cumulative time (in ticks) in various power states (Tick)
system.mem_ctrls.bytesRead::cpu0.inst          115072                       # Number of bytes read from this memory (Byte)
system.mem_ctrls.bytesRead::cpu0.data       700985344                       # Number of bytes read from this memory (Byte)
system.mem_ctrls.bytesRead::total           701100416                       # Number of bytes read from this memory (Byte)
system.mem_ctrls.bytesInstRead::cpu0.inst       115072                       # Number of instructions bytes read from this memory (Byte)
system.mem_ctrls.bytesInstRead::total          115072                       # Number of instructions bytes read from this memory (Byte)
system.mem_ctrls.bytesWritten::writebacks    163811840                       # Number of bytes written to this memory (Byte)
system.mem_ctrls.bytesWritten::total        163811840                       # Number of bytes written to this memory (Byte)
system.mem_ctrls.numReads::cpu0.inst             1798                       # Number of read requests responded to by this memory (Count)
system.mem_ctrls.numReads::cpu0.data         10952896                       # Number of read requests responded to by this memory (Count)
system.mem_ctrls.numReads::total             10954694                       # Number of read requests responded to by this memory (Count)
system.mem_ctrls.numWrites::writebacks        2559560                       # Number of write requests responded to by this memory (Count)
system.mem_ctrls.numWrites::total             2559560                       # Number of write requests responded to by this memory (Count)
system.mem_ctrls.bwRead::cpu0.inst               6045                       # Total read bandwidth from this memory ((Byte/Second))
system.mem_ctrls.bwRead::cpu0.data           36821540                       # Total read bandwidth from this memory ((Byte/Second))
system.mem_ctrls.bwRead::total               36827585                       # Total read bandwidth from this memory ((Byte/Second))
system.mem_ctrls.bwInstRead::cpu0.inst           6045                       # Instruction read bandwidth from this memory ((Byte/Second))
system.mem_ctrls.bwInstRead::total               6045                       # Instruction read bandwidth from this memory ((Byte/Second))
system.mem_ctrls.bwWrite::writebacks          8604751                       # Write bandwidth from this memory ((Byte/Second))
system.mem_ctrls.bwWrite::total               8604751                       # Write bandwidth from this memory ((Byte/Second))
system.mem_ctrls.bwTotal::writebacks          8604751                       # Total bandwidth to/from this memory ((Byte/Second))
system.mem_ctrls.bwTotal::cpu0.inst              6045                       # Total bandwidth to/from this memory ((Byte/Second))
system.mem_ctrls.bwTotal::cpu0.data          36821540                       # Total bandwidth to/from this memory ((Byte/Second))
system.mem_ctrls.bwTotal::total              45432336                       # Total bandwidth to/from this memory ((Byte/Second))
system.mem_ctrls.power_state.pwrStateResidencyTicks::UNDEFINED 19037371513363                       # Cumulative time (in ticks) in various power states (Tick)
system.membus.transDist::ReadResp             8572101                       # Transaction distribution (Count)
system.membus.transDist::WritebackDirty       2559560                       # Transaction distribution (Count)
system.membus.transDist::CleanEvict           8385773                       # Transaction distribution (Count)
system.membus.transDist::ReadExReq            2382593                       # Transaction distribution (Count)
system.membus.transDist::ReadExResp           2382593                       # Transaction distribution (Count)
system.membus.transDist::ReadSharedReq        8572101                       # Transaction distribution (Count)
system.membus.pktCount_system.l2.mem_side_port::system.mem_ctrls.port     32854721                       # Packet count per connected requestor and responder (Count)
system.membus.pktCount::total                32854721                       # Packet count per connected requestor and responder (Count)
system.membus.pktSize_system.l2.mem_side_port::system.mem_ctrls.port    864912256                       # Cumulative packet size per connected requestor and responder (Byte)
system.membus.pktSize::total                864912256                       # Cumulative packet size per connected requestor and responder (Byte)
system.membus.snoops                                0                       # Total snoops (Count)
system.membus.snoopTraffic                          0                       # Total snoop traffic (Byte)
system.membus.snoopFanout::samples           10954694                       # Request fanout histogram (Count)
system.membus.snoopFanout::mean                     0                       # Request fanout histogram (Count)
system.membus.snoopFanout::stdev                    0                       # Request fanout histogram (Count)
system.membus.snoopFanout::underflows               0      0.00%      0.00% # Request fanout histogram (Count)
system.membus.snoopFanout::0                 10954694    100.00%    100.00% # Request fanout histogram (Count)
system.membus.snoopFanout::1                        0      0.00%    100.00% # Request fanout histogram (Count)
system.membus.snoopFanout::overflows                0      0.00%    100.00% # Request fanout histogram (Count)
system.membus.snoopFanout::min_value                0                       # Request fanout histogram (Count)
system.membus.snoopFanout::max_value                0                       # Request fanout histogram (Count)
system.membus.snoopFanout::total             10954694                       # Request fanout histogram (Count)
system.membus.power_state.pwrStateResidencyTicks::UNDEFINED 19037371513363                       # Cumulative time (in ticks) in various power states (Tick)
system.membus.reqLayer0.occupancy         95659179821                       # Layer occupancy (ticks) (Tick)
system.membus.reqLayer0.utilization               0.0                       # Layer utilization (Ratio)
system.membus.respLayer1.occupancy       147103103344                       # Layer occupancy (ticks) (Tick)
system.membus.respLayer1.utilization              0.0                       # Layer utilization (Ratio)
system.membus.snoop_filter.totRequests       21900027                       # Total number of requests made to the snoop filter. (Count)
system.membus.snoop_filter.hitSingleRequests     10946201                       # Number of requests hitting in the snoop filter with a single holder of the requested data. (Count)
system.membus.snoop_filter.hitMultiRequests            0                       # Number of requests hitting in the snoop filter with multiple (>1) holders of the requested data. (Count)
system.membus.snoop_filter.totSnoops                0                       # Total number of snoops made to the snoop filter. (Count)
system.membus.snoop_filter.hitSingleSnoops            0                       # Number of snoops hitting in the snoop filter with a single holder of the requested data. (Count)
system.membus.snoop_filter.hitMultiSnoops            0                       # Number of snoops hitting in the snoop filter with multiple (>1) holders of the requested data. (Count)
system.tol2bus.transDist::ReadResp           89289296                       # Transaction distribution (Count)
system.tol2bus.transDist::WritebackDirty      9423197                       # Transaction distribution (Count)
system.tol2bus.transDist::WritebackClean        12553                       # Transaction distribution (Count)
system.tol2bus.transDist::CleanEvict         93367806                       # Transaction distribution (Count)
system.tol2bus.transDist::ReadExReq           2565813                       # Transaction distribution (Count)
system.tol2bus.transDist::ReadExResp          2565813                       # Transaction distribution (Count)
system.tol2bus.transDist::ReadCleanReq          13064                       # Transaction distribution (Count)
system.tol2bus.transDist::ReadSharedReq      89276232                       # Transaction distribution (Count)
system.tol2bus.pktCount_system.cpu0.icache.mem_side_port::system.l2.cpu_side_port        38681                       # Packet count per connected requestor and responder (Count)
system.tol2bus.pktCount_system.cpu0.dcache.mem_side_port::system.l2.cpu_side_port    275525623                       # Packet count per connected requestor and responder (Count)
system.tol2bus.pktCount::total              275564304                       # Packet count per connected requestor and responder (Count)
system.tol2bus.pktSize_system.cpu0.icache.mem_side_port::system.l2.cpu_side_port      1639488                       # Cumulative packet size per connected requestor and responder (Byte)
system.tol2bus.pktSize_system.cpu0.dcache.mem_side_port::system.l2.cpu_side_port   6317163584                       # Cumulative packet size per connected requestor and responder (Byte)
system.tol2bus.pktSize::total              6318803072                       # Cumulative packet size per connected requestor and responder (Byte)
system.tol2bus.snoops                        10949470                       # Total snoops (Count)
system.tol2bus.snoopTraffic                 163811904                       # Total snoop traffic (Byte)
system.tol2bus.snoopFanout::samples         102804579                       # Request fanout histogram (Count)
system.tol2bus.snoopFanout::mean             0.002346                       # Request fanout histogram (Count)
system.tol2bus.snoopFanout::stdev            0.048506                       # Request fanout histogram (Count)
system.tol2bus.snoopFanout::underflows              0      0.00%      0.00% # Request fanout histogram (Count)
system.tol2bus.snoopFanout::0               102564027     99.77%     99.77% # Request fanout histogram (Count)
system.tol2bus.snoopFanout::1                  239921      0.23%    100.00% # Request fanout histogram (Count)
system.tol2bus.snoopFanout::2                     631      0.00%    100.00% # Request fanout histogram (Count)
system.tol2bus.snoopFanout::3                       0      0.00%    100.00% # Request fanout histogram (Count)
system.tol2bus.snoopFanout::4                       0      0.00%    100.00% # Request fanout histogram (Count)
system.tol2bus.snoopFanout::5                       0      0.00%    100.00% # Request fanout histogram (Count)
system.tol2bus.snoopFanout::6                       0      0.00%    100.00% # Request fanout histogram (Count)
system.tol2bus.snoopFanout::7                       0      0.00%    100.00% # Request fanout histogram (Count)
system.tol2bus.snoopFanout::8                       0      0.00%    100.00% # Request fanout histogram (Count)
system.tol2bus.snoopFanout::overflows               0      0.00%    100.00% # Request fanout histogram (Count)
system.tol2bus.snoopFanout::min_value               0                       # Request fanout histogram (Count)
system.tol2bus.snoopFanout::max_value               2                       # Request fanout histogram (Count)
system.tol2bus.snoopFanout::total           102804579                       # Request fanout histogram (Count)
system.tol2bus.power_state.pwrStateResidencyTicks::UNDEFINED 19037371513363                       # Cumulative time (in ticks) in various power states (Tick)
system.tol2bus.reqLayer0.occupancy       164485490309                       # Layer occupancy (ticks) (Tick)
system.tol2bus.reqLayer0.utilization              0.0                       # Layer utilization (Ratio)
system.tol2bus.respLayer0.occupancy          32650264                       # Layer occupancy (ticks) (Tick)
system.tol2bus.respLayer0.utilization             0.0                       # Layer utilization (Ratio)
system.tol2bus.respLayer1.occupancy      229513302071                       # Layer occupancy (ticks) (Tick)
system.tol2bus.respLayer1.utilization             0.0                       # Layer utilization (Ratio)
system.tol2bus.snoop_filter.totRequests     183709195                       # Total number of requests made to the snoop filter. (Count)
system.tol2bus.snoop_filter.hitSingleRequests     91854090                       # Number of requests hitting in the snoop filter with a single holder of the requested data. (Count)
system.tol2bus.snoop_filter.hitMultiRequests       235606                       # Number of requests hitting in the snoop filter with multiple (>1) holders of the requested data. (Count)
system.tol2bus.snoop_filter.totSnoops            4942                       # Total number of snoops made to the snoop filter. (Count)
system.tol2bus.snoop_filter.hitSingleSnoops         4311                       # Number of snoops hitting in the snoop filter with a single holder of the requested data. (Count)
system.tol2bus.snoop_filter.hitMultiSnoops          631                       # Number of snoops hitting in the snoop filter with multiple (>1) holders of the requested data. (Count)
system.voltage_domain.voltage                       1                       # Voltage in Volts (Volt)
system.workload.inst.arm                            0                       # number of arm instructions executed (Count)
system.workload.inst.quiesce                        0                       # number of quiesce instructions executed (Count)
system.cpu0.idleCycles                     3520734628                       # Total number of cycles that the object has spent stopped (Unspecified)
system.cpu0.tickCycles                    19333252783                       # Number of cycles that the object actually ticked (Unspecified)
system.cpu1.idleCycles                              0                       # Total number of cycles that the object has spent stopped (Unspecified)
system.cpu1.tickCycles                              2                       # Number of cycles that the object actually ticked (Unspecified)
system.cpu2.idleCycles                              0                       # Total number of cycles that the object has spent stopped (Unspecified)
system.cpu2.tickCycles                              2                       # Number of cycles that the object actually ticked (Unspecified)
system.cpu3.idleCycles                              0                       # Total number of cycles that the object has spent stopped (Unspecified)
system.cpu3.tickCycles                              2                       # Number of cycles that the object actually ticked (Unspecified)

---------- End Simulation Statistics   ----------
