
---------- Begin Simulation Statistics ----------
simSeconds                                   0.241134                       # Number of seconds simulated (Second)
simTicks                                 241134247854                       # Number of ticks simulated (Tick)
finalTick                                241134247854                       # Number of ticks from beginning of simulation (restored from checkpoints and never reset) (Tick)
simFreq                                  1000000000000                       # The number of ticks per simulated second ((Tick/Second))
hostSeconds                                    269.57                       # Real time elapsed on the host (Second)
hostTickRate                                894510312                       # The number of ticks simulated per host second (ticks/s) ((Tick/Second))
hostMemory                                     856712                       # Number of bytes of host memory used (Byte)
simInsts                                    340336756                       # Number of instructions simulated (Count)
simOps                                      671080259                       # Number of ops (including micro ops) simulated (Count)
hostInstRate                                  1262511                       # Simulator instruction rate (inst/s) ((Count/Second))
hostOpRate                                    2489434                       # Simulator op (including micro ops) rate (op/s) ((Count/Second))
system.clk_domain.clock                          2500                       # Clock period in ticks (Tick)
system.cpu.numCycles                        770397317                       # Number of cpu cycles simulated (Cycle)
system.cpu.cpi                               2.263624                       # CPI: cycles per instruction (core level) ((Cycle/Count))
system.cpu.ipc                               0.441770                       # IPC: instructions per cycle (core level) ((Count/Cycle))
system.cpu.numWorkItemsStarted                      0                       # Number of work items this cpu started (Count)
system.cpu.numWorkItemsCompleted                    0                       # Number of work items this cpu completed (Count)
system.cpu.commitStats0.numInsts            340338067                       # Number of instructions committed (thread level) (Count)
system.cpu.commitStats0.numOps              671081627                       # Number of ops (including micro ops) committed (thread level) (Count)
system.cpu.commitStats0.numInstsNotNOP              0                       # Number of instructions committed excluding NOPs or prefetches (Count)
system.cpu.commitStats0.numOpsNotNOP                0                       # Number of Ops (including micro ops) Simulated (Count)
system.cpu.commitStats0.cpi                  2.263624                       # CPI: cycles per instruction (thread level) ((Cycle/Count))
system.cpu.commitStats0.ipc                  0.441770                       # IPC: instructions per cycle (thread level) ((Count/Cycle))
system.cpu.commitStats0.numMemRefs                  0                       # Number of memory references committed (Count)
system.cpu.commitStats0.numFpInsts              60813                       # Number of float instructions (Count)
system.cpu.commitStats0.numIntInsts         671037308                       # Number of integer instructions (Count)
system.cpu.commitStats0.numLoadInsts        104060215                       # Number of load instructions (Count)
system.cpu.commitStats0.numStoreInsts        56750665                       # Number of store instructions (Count)
system.cpu.commitStats0.numVecInsts                 0                       # Number of vector instructions (Count)
system.cpu.commitStats0.committedInstType::No_OpClass         2605      0.00%      0.00% # Class of committed instruction. (Count)
system.cpu.commitStats0.committedInstType::IntAlu    510225539     76.03%     76.03% # Class of committed instruction. (Count)
system.cpu.commitStats0.committedInstType::IntMult         2496      0.00%     76.03% # Class of committed instruction. (Count)
system.cpu.commitStats0.committedInstType::IntDiv         3742      0.00%     76.03% # Class of committed instruction. (Count)
system.cpu.commitStats0.committedInstType::FloatAdd        14047      0.00%     76.03% # Class of committed instruction. (Count)
system.cpu.commitStats0.committedInstType::FloatCmp            0      0.00%     76.03% # Class of committed instruction. (Count)
system.cpu.commitStats0.committedInstType::FloatCvt          400      0.00%     76.03% # Class of committed instruction. (Count)
system.cpu.commitStats0.committedInstType::FloatMult            0      0.00%     76.03% # Class of committed instruction. (Count)
system.cpu.commitStats0.committedInstType::FloatMultAcc            0      0.00%     76.03% # Class of committed instruction. (Count)
system.cpu.commitStats0.committedInstType::FloatDiv            0      0.00%     76.03% # Class of committed instruction. (Count)
system.cpu.commitStats0.committedInstType::FloatMisc            0      0.00%     76.03% # Class of committed instruction. (Count)
system.cpu.commitStats0.committedInstType::FloatSqrt            0      0.00%     76.03% # Class of committed instruction. (Count)
system.cpu.commitStats0.committedInstType::SimdAdd           16      0.00%     76.03% # Class of committed instruction. (Count)
system.cpu.commitStats0.committedInstType::SimdAddAcc            0      0.00%     76.03% # Class of committed instruction. (Count)
system.cpu.commitStats0.committedInstType::SimdAlu         5780      0.00%     76.03% # Class of committed instruction. (Count)
system.cpu.commitStats0.committedInstType::SimdCmp            0      0.00%     76.03% # Class of committed instruction. (Count)
system.cpu.commitStats0.committedInstType::SimdCvt          514      0.00%     76.03% # Class of committed instruction. (Count)
system.cpu.commitStats0.committedInstType::SimdMisc         4856      0.00%     76.04% # Class of committed instruction. (Count)
system.cpu.commitStats0.committedInstType::SimdMult            0      0.00%     76.04% # Class of committed instruction. (Count)
system.cpu.commitStats0.committedInstType::SimdMultAcc            0      0.00%     76.04% # Class of committed instruction. (Count)
system.cpu.commitStats0.committedInstType::SimdMatMultAcc            0      0.00%     76.04% # Class of committed instruction. (Count)
system.cpu.commitStats0.committedInstType::SimdShift            0      0.00%     76.04% # Class of committed instruction. (Count)
system.cpu.commitStats0.committedInstType::SimdShiftAcc            0      0.00%     76.04% # Class of committed instruction. (Count)
system.cpu.commitStats0.committedInstType::SimdDiv            0      0.00%     76.04% # Class of committed instruction. (Count)
system.cpu.commitStats0.committedInstType::SimdSqrt            0      0.00%     76.04% # Class of committed instruction. (Count)
system.cpu.commitStats0.committedInstType::SimdFloatAdd         2304      0.00%     76.04% # Class of committed instruction. (Count)
system.cpu.commitStats0.committedInstType::SimdFloatAlu            0      0.00%     76.04% # Class of committed instruction. (Count)
system.cpu.commitStats0.committedInstType::SimdFloatCmp            0      0.00%     76.04% # Class of committed instruction. (Count)
system.cpu.commitStats0.committedInstType::SimdFloatCvt         5760      0.00%     76.04% # Class of committed instruction. (Count)
system.cpu.commitStats0.committedInstType::SimdFloatDiv         1152      0.00%     76.04% # Class of committed instruction. (Count)
system.cpu.commitStats0.committedInstType::SimdFloatMisc            0      0.00%     76.04% # Class of committed instruction. (Count)
system.cpu.commitStats0.committedInstType::SimdFloatMult         1536      0.00%     76.04% # Class of committed instruction. (Count)
system.cpu.commitStats0.committedInstType::SimdFloatMultAcc            0      0.00%     76.04% # Class of committed instruction. (Count)
system.cpu.commitStats0.committedInstType::SimdFloatMatMultAcc            0      0.00%     76.04% # Class of committed instruction. (Count)
system.cpu.commitStats0.committedInstType::SimdFloatSqrt            0      0.00%     76.04% # Class of committed instruction. (Count)
system.cpu.commitStats0.committedInstType::SimdReduceAdd            0      0.00%     76.04% # Class of committed instruction. (Count)
system.cpu.commitStats0.committedInstType::SimdReduceAlu            0      0.00%     76.04% # Class of committed instruction. (Count)
system.cpu.commitStats0.committedInstType::SimdReduceCmp            0      0.00%     76.04% # Class of committed instruction. (Count)
system.cpu.commitStats0.committedInstType::SimdFloatReduceAdd            0      0.00%     76.04% # Class of committed instruction. (Count)
system.cpu.commitStats0.committedInstType::SimdFloatReduceCmp            0      0.00%     76.04% # Class of committed instruction. (Count)
system.cpu.commitStats0.committedInstType::SimdAes            0      0.00%     76.04% # Class of committed instruction. (Count)
system.cpu.commitStats0.committedInstType::SimdAesMix            0      0.00%     76.04% # Class of committed instruction. (Count)
system.cpu.commitStats0.committedInstType::SimdSha1Hash            0      0.00%     76.04% # Class of committed instruction. (Count)
system.cpu.commitStats0.committedInstType::SimdSha1Hash2            0      0.00%     76.04% # Class of committed instruction. (Count)
system.cpu.commitStats0.committedInstType::SimdSha256Hash            0      0.00%     76.04% # Class of committed instruction. (Count)
system.cpu.commitStats0.committedInstType::SimdSha256Hash2            0      0.00%     76.04% # Class of committed instruction. (Count)
system.cpu.commitStats0.committedInstType::SimdShaSigma2            0      0.00%     76.04% # Class of committed instruction. (Count)
system.cpu.commitStats0.committedInstType::SimdShaSigma3            0      0.00%     76.04% # Class of committed instruction. (Count)
system.cpu.commitStats0.committedInstType::SimdPredAlu            0      0.00%     76.04% # Class of committed instruction. (Count)
system.cpu.commitStats0.committedInstType::Matrix            0      0.00%     76.04% # Class of committed instruction. (Count)
system.cpu.commitStats0.committedInstType::MatrixMov            0      0.00%     76.04% # Class of committed instruction. (Count)
system.cpu.commitStats0.committedInstType::MatrixOP            0      0.00%     76.04% # Class of committed instruction. (Count)
system.cpu.commitStats0.committedInstType::MemRead    104043594     15.50%     91.54% # Class of committed instruction. (Count)
system.cpu.commitStats0.committedInstType::MemWrite     56742947      8.46%    100.00% # Class of committed instruction. (Count)
system.cpu.commitStats0.committedInstType::FloatMemRead        16621      0.00%    100.00% # Class of committed instruction. (Count)
system.cpu.commitStats0.committedInstType::FloatMemWrite         7718      0.00%    100.00% # Class of committed instruction. (Count)
system.cpu.commitStats0.committedInstType::IprAccess            0      0.00%    100.00% # Class of committed instruction. (Count)
system.cpu.commitStats0.committedInstType::InstPrefetch            0      0.00%    100.00% # Class of committed instruction. (Count)
system.cpu.commitStats0.committedInstType::SimdUnitStrideLoad            0      0.00%    100.00% # Class of committed instruction. (Count)
system.cpu.commitStats0.committedInstType::SimdUnitStrideStore            0      0.00%    100.00% # Class of committed instruction. (Count)
system.cpu.commitStats0.committedInstType::SimdUnitStrideMaskLoad            0      0.00%    100.00% # Class of committed instruction. (Count)
system.cpu.commitStats0.committedInstType::SimdUnitStrideMaskStore            0      0.00%    100.00% # Class of committed instruction. (Count)
system.cpu.commitStats0.committedInstType::SimdStridedLoad            0      0.00%    100.00% # Class of committed instruction. (Count)
system.cpu.commitStats0.committedInstType::SimdStridedStore            0      0.00%    100.00% # Class of committed instruction. (Count)
system.cpu.commitStats0.committedInstType::SimdIndexedLoad            0      0.00%    100.00% # Class of committed instruction. (Count)
system.cpu.commitStats0.committedInstType::SimdIndexedStore            0      0.00%    100.00% # Class of committed instruction. (Count)
system.cpu.commitStats0.committedInstType::SimdWholeRegisterLoad            0      0.00%    100.00% # Class of committed instruction. (Count)
system.cpu.commitStats0.committedInstType::SimdWholeRegisterStore            0      0.00%    100.00% # Class of committed instruction. (Count)
system.cpu.commitStats0.committedInstType::SimdUnitStrideFaultOnlyFirstLoad            0      0.00%    100.00% # Class of committed instruction. (Count)
system.cpu.commitStats0.committedInstType::SimdUnitStrideSegmentedLoad            0      0.00%    100.00% # Class of committed instruction. (Count)
system.cpu.commitStats0.committedInstType::SimdUnitStrideSegmentedStore            0      0.00%    100.00% # Class of committed instruction. (Count)
system.cpu.commitStats0.committedInstType::SimdExt            0      0.00%    100.00% # Class of committed instruction. (Count)
system.cpu.commitStats0.committedInstType::SimdFloatExt            0      0.00%    100.00% # Class of committed instruction. (Count)
system.cpu.commitStats0.committedInstType::SimdConfig            0      0.00%    100.00% # Class of committed instruction. (Count)
system.cpu.commitStats0.committedInstType::total    671081627                       # Class of committed instruction. (Count)
system.cpu.commitStats0.committedControl::IsControl     75673050                       # Class of control type instructions committed (Count)
system.cpu.commitStats0.committedControl::IsDirectControl     56780654                       # Class of control type instructions committed (Count)
system.cpu.commitStats0.committedControl::IsIndirectControl     18892396                       # Class of control type instructions committed (Count)
system.cpu.commitStats0.committedControl::IsCondControl     42593109                       # Class of control type instructions committed (Count)
system.cpu.commitStats0.committedControl::IsUncondControl     33079941                       # Class of control type instructions committed (Count)
system.cpu.commitStats0.committedControl::IsCall     14171183                       # Class of control type instructions committed (Count)
system.cpu.commitStats0.committedControl::IsReturn     14171179                       # Class of control type instructions committed (Count)
system.cpu.dcache.demandHits::cpu.data      159566066                       # number of demand (read+write) hits (Count)
system.cpu.dcache.demandHits::total         159566066                       # number of demand (read+write) hits (Count)
system.cpu.dcache.overallHits::cpu.data     159566066                       # number of overall hits (Count)
system.cpu.dcache.overallHits::total        159566066                       # number of overall hits (Count)
system.cpu.dcache.demandMisses::cpu.data        62862                       # number of demand (read+write) misses (Count)
system.cpu.dcache.demandMisses::total           62862                       # number of demand (read+write) misses (Count)
system.cpu.dcache.overallMisses::cpu.data        62862                       # number of overall misses (Count)
system.cpu.dcache.overallMisses::total          62862                       # number of overall misses (Count)
system.cpu.dcache.demandAccesses::cpu.data    159628928                       # number of demand (read+write) accesses (Count)
system.cpu.dcache.demandAccesses::total     159628928                       # number of demand (read+write) accesses (Count)
system.cpu.dcache.overallAccesses::cpu.data    159628928                       # number of overall (read+write) accesses (Count)
system.cpu.dcache.overallAccesses::total    159628928                       # number of overall (read+write) accesses (Count)
system.cpu.dcache.demandMissRate::cpu.data     0.000394                       # miss rate for demand accesses (Ratio)
system.cpu.dcache.demandMissRate::total      0.000394                       # miss rate for demand accesses (Ratio)
system.cpu.dcache.overallMissRate::cpu.data     0.000394                       # miss rate for overall accesses (Ratio)
system.cpu.dcache.overallMissRate::total     0.000394                       # miss rate for overall accesses (Ratio)
system.cpu.dcache.blockedCycles::no_mshrs            0                       # number of cycles access was blocked (Cycle)
system.cpu.dcache.blockedCycles::no_targets            0                       # number of cycles access was blocked (Cycle)
system.cpu.dcache.blockedCauses::no_mshrs            0                       # number of times access was blocked (Count)
system.cpu.dcache.blockedCauses::no_targets            0                       # number of times access was blocked (Count)
system.cpu.dcache.avgBlocked::no_mshrs            nan                       # average number of cycles each access was blocked ((Cycle/Count))
system.cpu.dcache.avgBlocked::no_targets          nan                       # average number of cycles each access was blocked ((Cycle/Count))
system.cpu.dcache.writebacks::writebacks        57740                       # number of writebacks (Count)
system.cpu.dcache.writebacks::total             57740                       # number of writebacks (Count)
system.cpu.dcache.replacements                  62352                       # number of replacements (Count)
system.cpu.dcache.LockedRMWReadReq.hits::cpu.data          151                       # number of LockedRMWReadReq hits (Count)
system.cpu.dcache.LockedRMWReadReq.hits::total          151                       # number of LockedRMWReadReq hits (Count)
system.cpu.dcache.LockedRMWReadReq.misses::cpu.data            2                       # number of LockedRMWReadReq misses (Count)
system.cpu.dcache.LockedRMWReadReq.misses::total            2                       # number of LockedRMWReadReq misses (Count)
system.cpu.dcache.LockedRMWReadReq.accesses::cpu.data          153                       # number of LockedRMWReadReq accesses(hits+misses) (Count)
system.cpu.dcache.LockedRMWReadReq.accesses::total          153                       # number of LockedRMWReadReq accesses(hits+misses) (Count)
system.cpu.dcache.LockedRMWReadReq.missRate::cpu.data     0.013072                       # miss rate for LockedRMWReadReq accesses (Ratio)
system.cpu.dcache.LockedRMWReadReq.missRate::total     0.013072                       # miss rate for LockedRMWReadReq accesses (Ratio)
system.cpu.dcache.LockedRMWWriteReq.hits::cpu.data          153                       # number of LockedRMWWriteReq hits (Count)
system.cpu.dcache.LockedRMWWriteReq.hits::total          153                       # number of LockedRMWWriteReq hits (Count)
system.cpu.dcache.LockedRMWWriteReq.accesses::cpu.data          153                       # number of LockedRMWWriteReq accesses(hits+misses) (Count)
system.cpu.dcache.LockedRMWWriteReq.accesses::total          153                       # number of LockedRMWWriteReq accesses(hits+misses) (Count)
system.cpu.dcache.ReadReq.hits::cpu.data    104054445                       # number of ReadReq hits (Count)
system.cpu.dcache.ReadReq.hits::total       104054445                       # number of ReadReq hits (Count)
system.cpu.dcache.ReadReq.misses::cpu.data         5566                       # number of ReadReq misses (Count)
system.cpu.dcache.ReadReq.misses::total          5566                       # number of ReadReq misses (Count)
system.cpu.dcache.ReadReq.accesses::cpu.data    104060011                       # number of ReadReq accesses(hits+misses) (Count)
system.cpu.dcache.ReadReq.accesses::total    104060011                       # number of ReadReq accesses(hits+misses) (Count)
system.cpu.dcache.ReadReq.missRate::cpu.data     0.000053                       # miss rate for ReadReq accesses (Ratio)
system.cpu.dcache.ReadReq.missRate::total     0.000053                       # miss rate for ReadReq accesses (Ratio)
system.cpu.dcache.WriteReq.hits::cpu.data     55511621                       # number of WriteReq hits (Count)
system.cpu.dcache.WriteReq.hits::total       55511621                       # number of WriteReq hits (Count)
system.cpu.dcache.WriteReq.misses::cpu.data        57296                       # number of WriteReq misses (Count)
system.cpu.dcache.WriteReq.misses::total        57296                       # number of WriteReq misses (Count)
system.cpu.dcache.WriteReq.accesses::cpu.data     55568917                       # number of WriteReq accesses(hits+misses) (Count)
system.cpu.dcache.WriteReq.accesses::total     55568917                       # number of WriteReq accesses(hits+misses) (Count)
system.cpu.dcache.WriteReq.missRate::cpu.data     0.001031                       # miss rate for WriteReq accesses (Ratio)
system.cpu.dcache.WriteReq.missRate::total     0.001031                       # miss rate for WriteReq accesses (Ratio)
system.cpu.dcache.power_state.pwrStateResidencyTicks::UNDEFINED 241134247854                       # Cumulative time (in ticks) in various power states (Tick)
system.cpu.dcache.tags.tagsInUse           511.968515                       # Average ticks per tags in use ((Tick/Count))
system.cpu.dcache.tags.totalRefs            159629234                       # Total number of references to valid blocks. (Count)
system.cpu.dcache.tags.sampledRefs              62864                       # Sample count of references to valid blocks. (Count)
system.cpu.dcache.tags.avgRefs            2539.278983                       # Average number of references to valid blocks. ((Count/Count))
system.cpu.dcache.tags.warmupTick                 939                       # The tick when the warmup percentage was hit. (Tick)
system.cpu.dcache.tags.occupancies::cpu.data   511.968515                       # Average occupied blocks per tick, per requestor ((Count/Tick))
system.cpu.dcache.tags.avgOccs::cpu.data     0.999939                       # Average percentage of cache occupancy ((Ratio/Tick))
system.cpu.dcache.tags.avgOccs::total        0.999939                       # Average percentage of cache occupancy ((Ratio/Tick))
system.cpu.dcache.tags.occupanciesTaskId::1024          512                       # Occupied blocks per task id (Count)
system.cpu.dcache.tags.ageTaskId_1024::0          118                       # Occupied blocks per task id, per block age (Count)
system.cpu.dcache.tags.ageTaskId_1024::1          122                       # Occupied blocks per task id, per block age (Count)
system.cpu.dcache.tags.ageTaskId_1024::2          180                       # Occupied blocks per task id, per block age (Count)
system.cpu.dcache.tags.ageTaskId_1024::4           92                       # Occupied blocks per task id, per block age (Count)
system.cpu.dcache.tags.ratioOccsTaskId::1024            1                       # Ratio of occupied blocks and all blocks, per task id (Ratio)
system.cpu.dcache.tags.tagAccesses          319321332                       # Number of tag accesses (Count)
system.cpu.dcache.tags.dataAccesses         319321332                       # Number of data accesses (Count)
system.cpu.dcache.tags.power_state.pwrStateResidencyTicks::UNDEFINED 241134247854                       # Cumulative time (in ticks) in various power states (Tick)
system.cpu.dtb_walker_cache.blockedCycles::no_mshrs            0                       # number of cycles access was blocked (Cycle)
system.cpu.dtb_walker_cache.blockedCycles::no_targets            0                       # number of cycles access was blocked (Cycle)
system.cpu.dtb_walker_cache.blockedCauses::no_mshrs            0                       # number of times access was blocked (Count)
system.cpu.dtb_walker_cache.blockedCauses::no_targets            0                       # number of times access was blocked (Count)
system.cpu.dtb_walker_cache.avgBlocked::no_mshrs          nan                       # average number of cycles each access was blocked ((Cycle/Count))
system.cpu.dtb_walker_cache.avgBlocked::no_targets          nan                       # average number of cycles each access was blocked ((Cycle/Count))
system.cpu.dtb_walker_cache.replacements            0                       # number of replacements (Count)
system.cpu.dtb_walker_cache.power_state.pwrStateResidencyTicks::UNDEFINED 241134247854                       # Cumulative time (in ticks) in various power states (Tick)
system.cpu.dtb_walker_cache.tags.tagsInUse            0                       # Average ticks per tags in use ((Tick/Count))
system.cpu.dtb_walker_cache.tags.totalRefs            0                       # Total number of references to valid blocks. (Count)
system.cpu.dtb_walker_cache.tags.sampledRefs            0                       # Sample count of references to valid blocks. (Count)
system.cpu.dtb_walker_cache.tags.avgRefs          nan                       # Average number of references to valid blocks. ((Count/Count))
system.cpu.dtb_walker_cache.tags.warmupTick            0                       # The tick when the warmup percentage was hit. (Tick)
system.cpu.dtb_walker_cache.tags.tagAccesses            0                       # Number of tag accesses (Count)
system.cpu.dtb_walker_cache.tags.dataAccesses            0                       # Number of data accesses (Count)
system.cpu.dtb_walker_cache.tags.power_state.pwrStateResidencyTicks::UNDEFINED 241134247854                       # Cumulative time (in ticks) in various power states (Tick)
system.cpu.exec_context.thread_0.numMatAluAccesses            0                       # Number of matrix alu accesses (Count)
system.cpu.exec_context.thread_0.numCallsReturns     28342362                       # Number of times a function call or return occured (Count)
system.cpu.exec_context.thread_0.numMatInsts            0                       # Number of matrix instructions (Count)
system.cpu.exec_context.thread_0.numIdleCycles     0.003195                       # Number of idle cycles (Cycle)
system.cpu.exec_context.thread_0.numBusyCycles 770397316.996805                       # Number of busy cycles (Cycle)
system.cpu.exec_context.thread_0.notIdleFraction     1.000000                       # Percentage of non-idle cycles (Ratio)
system.cpu.exec_context.thread_0.idleFraction     0.000000                       # Percentage of idle cycles (Ratio)
system.cpu.executeStats0.numInsts                   0                       # Number of executed instructions (Count)
system.cpu.executeStats0.numNop                     0                       # Number of nop insts executed (Count)
system.cpu.executeStats0.numBranches                0                       # Number of branches executed (Count)
system.cpu.executeStats0.numLoadInsts               0                       # Number of load instructions executed (Count)
system.cpu.executeStats0.numStoreInsts      160810880                       # Number of stores executed (Count)
system.cpu.executeStats0.instRate                   0                       # Inst execution rate ((Count/Cycle))
system.cpu.executeStats0.numFpAluAccesses        60813                       # Number of float alu accesses (Count)
system.cpu.executeStats0.numFpRegReads          52990                       # Number of times the floating registers were read (Count)
system.cpu.executeStats0.numFpRegWrites         47587                       # Number of times the floating registers were written (Count)
system.cpu.executeStats0.numIntAluAccesses    671037308                       # Number of integer alu accesses (Count)
system.cpu.executeStats0.numIntRegReads     793331226                       # Number of times the integer registers were read (Count)
system.cpu.executeStats0.numIntRegWrites    496183583                       # Number of times the integer registers were written (Count)
system.cpu.executeStats0.numMemRefs         160810880                       # Number of memory refs (Count)
system.cpu.executeStats0.numMiscRegReads    321577304                       # Number of times the Misc registers were read (Count)
system.cpu.executeStats0.numMiscRegWrites          225                       # Number of times the Misc registers were written (Count)
system.cpu.executeStats0.numVecAluAccesses            0                       # Number of vector alu accesses (Count)
system.cpu.executeStats0.numDiscardedOps            0                       # Number of ops (including micro ops) which were discarded before commit (Count)
system.cpu.fetchStats0.numInsts             340338067                       # Number of instructions fetched (thread level) (Count)
system.cpu.fetchStats0.numOps               671081627                       # Number of ops (including micro ops) fetched (thread level) (Count)
system.cpu.fetchStats0.fetchRate             0.441770                       # Number of inst fetches per cycle ((Count/Cycle))
system.cpu.fetchStats0.numBranches           75673050                       # Number of branches fetched (Count)
system.cpu.fetchStats0.branchRate            0.098226                       # Number of branch fetches per cycle (Ratio)
system.cpu.fetchStats0.numFetchSuspends             0                       # Number of times Execute suspended instruction fetching (Count)
system.cpu.icache.demandHits::cpu.inst      439651297                       # number of demand (read+write) hits (Count)
system.cpu.icache.demandHits::total         439651297                       # number of demand (read+write) hits (Count)
system.cpu.icache.overallHits::cpu.inst     439651297                       # number of overall hits (Count)
system.cpu.icache.overallHits::total        439651297                       # number of overall hits (Count)
system.cpu.icache.demandMisses::cpu.inst         2445                       # number of demand (read+write) misses (Count)
system.cpu.icache.demandMisses::total            2445                       # number of demand (read+write) misses (Count)
system.cpu.icache.overallMisses::cpu.inst         2445                       # number of overall misses (Count)
system.cpu.icache.overallMisses::total           2445                       # number of overall misses (Count)
system.cpu.icache.demandAccesses::cpu.inst    439653742                       # number of demand (read+write) accesses (Count)
system.cpu.icache.demandAccesses::total     439653742                       # number of demand (read+write) accesses (Count)
system.cpu.icache.overallAccesses::cpu.inst    439653742                       # number of overall (read+write) accesses (Count)
system.cpu.icache.overallAccesses::total    439653742                       # number of overall (read+write) accesses (Count)
system.cpu.icache.demandMissRate::cpu.inst     0.000006                       # miss rate for demand accesses (Ratio)
system.cpu.icache.demandMissRate::total      0.000006                       # miss rate for demand accesses (Ratio)
system.cpu.icache.overallMissRate::cpu.inst     0.000006                       # miss rate for overall accesses (Ratio)
system.cpu.icache.overallMissRate::total     0.000006                       # miss rate for overall accesses (Ratio)
system.cpu.icache.blockedCycles::no_mshrs            0                       # number of cycles access was blocked (Cycle)
system.cpu.icache.blockedCycles::no_targets            0                       # number of cycles access was blocked (Cycle)
system.cpu.icache.blockedCauses::no_mshrs            0                       # number of times access was blocked (Count)
system.cpu.icache.blockedCauses::no_targets            0                       # number of times access was blocked (Count)
system.cpu.icache.avgBlocked::no_mshrs            nan                       # average number of cycles each access was blocked ((Cycle/Count))
system.cpu.icache.avgBlocked::no_targets          nan                       # average number of cycles each access was blocked ((Cycle/Count))
system.cpu.icache.writebacks::writebacks         1934                       # number of writebacks (Count)
system.cpu.icache.writebacks::total              1934                       # number of writebacks (Count)
system.cpu.icache.replacements                   1934                       # number of replacements (Count)
system.cpu.icache.ReadReq.hits::cpu.inst    439651297                       # number of ReadReq hits (Count)
system.cpu.icache.ReadReq.hits::total       439651297                       # number of ReadReq hits (Count)
system.cpu.icache.ReadReq.misses::cpu.inst         2445                       # number of ReadReq misses (Count)
system.cpu.icache.ReadReq.misses::total          2445                       # number of ReadReq misses (Count)
system.cpu.icache.ReadReq.accesses::cpu.inst    439653742                       # number of ReadReq accesses(hits+misses) (Count)
system.cpu.icache.ReadReq.accesses::total    439653742                       # number of ReadReq accesses(hits+misses) (Count)
system.cpu.icache.ReadReq.missRate::cpu.inst     0.000006                       # miss rate for ReadReq accesses (Ratio)
system.cpu.icache.ReadReq.missRate::total     0.000006                       # miss rate for ReadReq accesses (Ratio)
system.cpu.icache.power_state.pwrStateResidencyTicks::UNDEFINED 241134247854                       # Cumulative time (in ticks) in various power states (Tick)
system.cpu.icache.tags.tagsInUse           508.924739                       # Average ticks per tags in use ((Tick/Count))
system.cpu.icache.tags.totalRefs            439653742                       # Total number of references to valid blocks. (Count)
system.cpu.icache.tags.sampledRefs               2445                       # Sample count of references to valid blocks. (Count)
system.cpu.icache.tags.avgRefs           179817.481391                       # Average number of references to valid blocks. ((Count/Count))
system.cpu.icache.tags.warmupTick                   0                       # The tick when the warmup percentage was hit. (Tick)
system.cpu.icache.tags.occupancies::cpu.inst   508.924739                       # Average occupied blocks per tick, per requestor ((Count/Tick))
system.cpu.icache.tags.avgOccs::cpu.inst     0.993994                       # Average percentage of cache occupancy ((Ratio/Tick))
system.cpu.icache.tags.avgOccs::total        0.993994                       # Average percentage of cache occupancy ((Ratio/Tick))
system.cpu.icache.tags.occupanciesTaskId::1024          511                       # Occupied blocks per task id (Count)
system.cpu.icache.tags.ageTaskId_1024::0          143                       # Occupied blocks per task id, per block age (Count)
system.cpu.icache.tags.ageTaskId_1024::1           40                       # Occupied blocks per task id, per block age (Count)
system.cpu.icache.tags.ageTaskId_1024::2           64                       # Occupied blocks per task id, per block age (Count)
system.cpu.icache.tags.ageTaskId_1024::4          264                       # Occupied blocks per task id, per block age (Count)
system.cpu.icache.tags.ratioOccsTaskId::1024     0.998047                       # Ratio of occupied blocks and all blocks, per task id (Ratio)
system.cpu.icache.tags.tagAccesses          879309929                       # Number of tag accesses (Count)
system.cpu.icache.tags.dataAccesses         879309929                       # Number of data accesses (Count)
system.cpu.icache.tags.power_state.pwrStateResidencyTicks::UNDEFINED 241134247854                       # Cumulative time (in ticks) in various power states (Tick)
system.cpu.interrupts.clk_domain.clock           5008                       # Clock period in ticks (Tick)
system.cpu.itb_walker_cache.blockedCycles::no_mshrs            0                       # number of cycles access was blocked (Cycle)
system.cpu.itb_walker_cache.blockedCycles::no_targets            0                       # number of cycles access was blocked (Cycle)
system.cpu.itb_walker_cache.blockedCauses::no_mshrs            0                       # number of times access was blocked (Count)
system.cpu.itb_walker_cache.blockedCauses::no_targets            0                       # number of times access was blocked (Count)
system.cpu.itb_walker_cache.avgBlocked::no_mshrs          nan                       # average number of cycles each access was blocked ((Cycle/Count))
system.cpu.itb_walker_cache.avgBlocked::no_targets          nan                       # average number of cycles each access was blocked ((Cycle/Count))
system.cpu.itb_walker_cache.replacements            0                       # number of replacements (Count)
system.cpu.itb_walker_cache.power_state.pwrStateResidencyTicks::UNDEFINED 241134247854                       # Cumulative time (in ticks) in various power states (Tick)
system.cpu.itb_walker_cache.tags.tagsInUse            0                       # Average ticks per tags in use ((Tick/Count))
system.cpu.itb_walker_cache.tags.totalRefs            0                       # Total number of references to valid blocks. (Count)
system.cpu.itb_walker_cache.tags.sampledRefs            0                       # Sample count of references to valid blocks. (Count)
system.cpu.itb_walker_cache.tags.avgRefs          nan                       # Average number of references to valid blocks. ((Count/Count))
system.cpu.itb_walker_cache.tags.warmupTick            0                       # The tick when the warmup percentage was hit. (Tick)
system.cpu.itb_walker_cache.tags.tagAccesses            0                       # Number of tag accesses (Count)
system.cpu.itb_walker_cache.tags.dataAccesses            0                       # Number of data accesses (Count)
system.cpu.itb_walker_cache.tags.power_state.pwrStateResidencyTicks::UNDEFINED 241134247854                       # Cumulative time (in ticks) in various power states (Tick)
system.cpu.mmu.dtb.rdAccesses               104060234                       # TLB accesses on read requests (Count)
system.cpu.mmu.dtb.wrAccesses                56750681                       # TLB accesses on write requests (Count)
system.cpu.mmu.dtb.rdMisses                       489                       # TLB misses on read requests (Count)
system.cpu.mmu.dtb.wrMisses                      2401                       # TLB misses on write requests (Count)
system.cpu.mmu.dtb.walker.power_state.pwrStateResidencyTicks::UNDEFINED 241134247854                       # Cumulative time (in ticks) in various power states (Tick)
system.cpu.mmu.itb.rdAccesses                       0                       # TLB accesses on read requests (Count)
system.cpu.mmu.itb.wrAccesses               439653814                       # TLB accesses on write requests (Count)
system.cpu.mmu.itb.rdMisses                         0                       # TLB misses on read requests (Count)
system.cpu.mmu.itb.wrMisses                       522                       # TLB misses on write requests (Count)
system.cpu.mmu.itb.walker.power_state.pwrStateResidencyTicks::UNDEFINED 241134247854                       # Cumulative time (in ticks) in various power states (Tick)
system.cpu.power_state.pwrStateResidencyTicks::ON 241134247854                       # Cumulative time (in ticks) in various power states (Tick)
system.cpu.thread_0.numInsts                        0                       # Number of Instructions committed (Count)
system.cpu.thread_0.numOps                          0                       # Number of Ops committed (Count)
system.cpu.thread_0.numMemRefs                      0                       # Number of Memory References (Count)
system.cpu.workload.numSyscalls                   113                       # Number of system calls (Count)
system.cpu_clk_domain.clock                       313                       # Clock period in ticks (Tick)
system.cpu_voltage_domain.voltage                   1                       # Voltage in Volts (Volt)
system.l2.demandHits::cpu.inst                    611                       # number of demand (read+write) hits (Count)
system.l2.demandHits::cpu.data                   1762                       # number of demand (read+write) hits (Count)
system.l2.demandHits::total                      2373                       # number of demand (read+write) hits (Count)
system.l2.overallHits::cpu.inst                   611                       # number of overall hits (Count)
system.l2.overallHits::cpu.data                  1762                       # number of overall hits (Count)
system.l2.overallHits::total                     2373                       # number of overall hits (Count)
system.l2.demandMisses::cpu.inst                 1834                       # number of demand (read+write) misses (Count)
system.l2.demandMisses::cpu.data                61102                       # number of demand (read+write) misses (Count)
system.l2.demandMisses::total                   62936                       # number of demand (read+write) misses (Count)
system.l2.overallMisses::cpu.inst                1834                       # number of overall misses (Count)
system.l2.overallMisses::cpu.data               61102                       # number of overall misses (Count)
system.l2.overallMisses::total                  62936                       # number of overall misses (Count)
system.l2.demandAccesses::cpu.inst               2445                       # number of demand (read+write) accesses (Count)
system.l2.demandAccesses::cpu.data              62864                       # number of demand (read+write) accesses (Count)
system.l2.demandAccesses::total                 65309                       # number of demand (read+write) accesses (Count)
system.l2.overallAccesses::cpu.inst              2445                       # number of overall (read+write) accesses (Count)
system.l2.overallAccesses::cpu.data             62864                       # number of overall (read+write) accesses (Count)
system.l2.overallAccesses::total                65309                       # number of overall (read+write) accesses (Count)
system.l2.demandMissRate::cpu.inst           0.750102                       # miss rate for demand accesses (Ratio)
system.l2.demandMissRate::cpu.data           0.971971                       # miss rate for demand accesses (Ratio)
system.l2.demandMissRate::total              0.963665                       # miss rate for demand accesses (Ratio)
system.l2.overallMissRate::cpu.inst          0.750102                       # miss rate for overall accesses (Ratio)
system.l2.overallMissRate::cpu.data          0.971971                       # miss rate for overall accesses (Ratio)
system.l2.overallMissRate::total             0.963665                       # miss rate for overall accesses (Ratio)
system.l2.blockedCycles::no_mshrs                   0                       # number of cycles access was blocked (Cycle)
system.l2.blockedCycles::no_targets                 0                       # number of cycles access was blocked (Cycle)
system.l2.blockedCauses::no_mshrs                   0                       # number of times access was blocked (Count)
system.l2.blockedCauses::no_targets                 0                       # number of times access was blocked (Count)
system.l2.avgBlocked::no_mshrs                    nan                       # average number of cycles each access was blocked ((Cycle/Count))
system.l2.avgBlocked::no_targets                  nan                       # average number of cycles each access was blocked ((Cycle/Count))
system.l2.writebacks::writebacks                25263                       # number of writebacks (Count)
system.l2.writebacks::total                     25263                       # number of writebacks (Count)
system.l2.replacements                          30418                       # number of replacements (Count)
system.l2.ReadCleanReq.hits::cpu.inst             611                       # number of ReadCleanReq hits (Count)
system.l2.ReadCleanReq.hits::total                611                       # number of ReadCleanReq hits (Count)
system.l2.ReadCleanReq.misses::cpu.inst          1834                       # number of ReadCleanReq misses (Count)
system.l2.ReadCleanReq.misses::total             1834                       # number of ReadCleanReq misses (Count)
system.l2.ReadCleanReq.accesses::cpu.inst         2445                       # number of ReadCleanReq accesses(hits+misses) (Count)
system.l2.ReadCleanReq.accesses::total           2445                       # number of ReadCleanReq accesses(hits+misses) (Count)
system.l2.ReadCleanReq.missRate::cpu.inst     0.750102                       # miss rate for ReadCleanReq accesses (Ratio)
system.l2.ReadCleanReq.missRate::total       0.750102                       # miss rate for ReadCleanReq accesses (Ratio)
system.l2.ReadExReq.hits::cpu.data                132                       # number of ReadExReq hits (Count)
system.l2.ReadExReq.hits::total                   132                       # number of ReadExReq hits (Count)
system.l2.ReadExReq.misses::cpu.data            57166                       # number of ReadExReq misses (Count)
system.l2.ReadExReq.misses::total               57166                       # number of ReadExReq misses (Count)
system.l2.ReadExReq.accesses::cpu.data          57298                       # number of ReadExReq accesses(hits+misses) (Count)
system.l2.ReadExReq.accesses::total             57298                       # number of ReadExReq accesses(hits+misses) (Count)
system.l2.ReadExReq.missRate::cpu.data       0.997696                       # miss rate for ReadExReq accesses (Ratio)
system.l2.ReadExReq.missRate::total          0.997696                       # miss rate for ReadExReq accesses (Ratio)
system.l2.ReadSharedReq.hits::cpu.data           1630                       # number of ReadSharedReq hits (Count)
system.l2.ReadSharedReq.hits::total              1630                       # number of ReadSharedReq hits (Count)
system.l2.ReadSharedReq.misses::cpu.data         3936                       # number of ReadSharedReq misses (Count)
system.l2.ReadSharedReq.misses::total            3936                       # number of ReadSharedReq misses (Count)
system.l2.ReadSharedReq.accesses::cpu.data         5566                       # number of ReadSharedReq accesses(hits+misses) (Count)
system.l2.ReadSharedReq.accesses::total          5566                       # number of ReadSharedReq accesses(hits+misses) (Count)
system.l2.ReadSharedReq.missRate::cpu.data     0.707151                       # miss rate for ReadSharedReq accesses (Ratio)
system.l2.ReadSharedReq.missRate::total      0.707151                       # miss rate for ReadSharedReq accesses (Ratio)
system.l2.WritebackClean.hits::writebacks         1934                       # number of WritebackClean hits (Count)
system.l2.WritebackClean.hits::total             1934                       # number of WritebackClean hits (Count)
system.l2.WritebackClean.accesses::writebacks         1934                       # number of WritebackClean accesses(hits+misses) (Count)
system.l2.WritebackClean.accesses::total         1934                       # number of WritebackClean accesses(hits+misses) (Count)
system.l2.WritebackDirty.hits::writebacks        57740                       # number of WritebackDirty hits (Count)
system.l2.WritebackDirty.hits::total            57740                       # number of WritebackDirty hits (Count)
system.l2.WritebackDirty.accesses::writebacks        57740                       # number of WritebackDirty accesses(hits+misses) (Count)
system.l2.WritebackDirty.accesses::total        57740                       # number of WritebackDirty accesses(hits+misses) (Count)
system.l2.power_state.pwrStateResidencyTicks::UNDEFINED 241134247854                       # Cumulative time (in ticks) in various power states (Tick)
system.l2.tags.tagsInUse                 28095.837855                       # Average ticks per tags in use ((Tick/Count))
system.l2.tags.totalRefs                       129595                       # Total number of references to valid blocks. (Count)
system.l2.tags.sampledRefs                      63186                       # Sample count of references to valid blocks. (Count)
system.l2.tags.avgRefs                       2.051008                       # Average number of references to valid blocks. ((Count/Count))
system.l2.tags.warmupTick                           0                       # The tick when the warmup percentage was hit. (Tick)
system.l2.tags.occupancies::writebacks       0.083558                       # Average occupied blocks per tick, per requestor ((Count/Tick))
system.l2.tags.occupancies::cpu.inst       616.403610                       # Average occupied blocks per tick, per requestor ((Count/Tick))
system.l2.tags.occupancies::cpu.data     27479.350688                       # Average occupied blocks per tick, per requestor ((Count/Tick))
system.l2.tags.avgOccs::writebacks           0.000003                       # Average percentage of cache occupancy ((Ratio/Tick))
system.l2.tags.avgOccs::cpu.inst             0.018811                       # Average percentage of cache occupancy ((Ratio/Tick))
system.l2.tags.avgOccs::cpu.data             0.838603                       # Average percentage of cache occupancy ((Ratio/Tick))
system.l2.tags.avgOccs::total                0.857417                       # Average percentage of cache occupancy ((Ratio/Tick))
system.l2.tags.occupanciesTaskId::1024          32768                       # Occupied blocks per task id (Count)
system.l2.tags.ageTaskId_1024::0                  309                       # Occupied blocks per task id, per block age (Count)
system.l2.tags.ageTaskId_1024::1                  221                       # Occupied blocks per task id, per block age (Count)
system.l2.tags.ageTaskId_1024::2                  516                       # Occupied blocks per task id, per block age (Count)
system.l2.tags.ageTaskId_1024::4                31722                       # Occupied blocks per task id, per block age (Count)
system.l2.tags.ratioOccsTaskId::1024                1                       # Ratio of occupied blocks and all blocks, per task id (Ratio)
system.l2.tags.tagAccesses                    1099946                       # Number of tag accesses (Count)
system.l2.tags.dataAccesses                   1099946                       # Number of data accesses (Count)
system.l2.tags.power_state.pwrStateResidencyTicks::UNDEFINED 241134247854                       # Cumulative time (in ticks) in various power states (Tick)
system.mem_ctrls.bytesRead::cpu.inst           117376                       # Number of bytes read from this memory (Byte)
system.mem_ctrls.bytesRead::cpu.data          3910528                       # Number of bytes read from this memory (Byte)
system.mem_ctrls.bytesRead::total             4027904                       # Number of bytes read from this memory (Byte)
system.mem_ctrls.bytesInstRead::cpu.inst       117376                       # Number of instructions bytes read from this memory (Byte)
system.mem_ctrls.bytesInstRead::total          117376                       # Number of instructions bytes read from this memory (Byte)
system.mem_ctrls.bytesWritten::writebacks      1616832                       # Number of bytes written to this memory (Byte)
system.mem_ctrls.bytesWritten::cpu.data       1180426                       # Number of bytes written to this memory (Byte)
system.mem_ctrls.bytesWritten::total          2797258                       # Number of bytes written to this memory (Byte)
system.mem_ctrls.numReads::cpu.inst              1834                       # Number of read requests responded to by this memory (Count)
system.mem_ctrls.numReads::cpu.data             61102                       # Number of read requests responded to by this memory (Count)
system.mem_ctrls.numReads::total                62936                       # Number of read requests responded to by this memory (Count)
system.mem_ctrls.numWrites::writebacks          25263                       # Number of write requests responded to by this memory (Count)
system.mem_ctrls.numWrites::cpu.data          1180426                       # Number of write requests responded to by this memory (Count)
system.mem_ctrls.numWrites::total             1205689                       # Number of write requests responded to by this memory (Count)
system.mem_ctrls.bwRead::cpu.inst              486766                       # Total read bandwidth from this memory ((Byte/Second))
system.mem_ctrls.bwRead::cpu.data            16217224                       # Total read bandwidth from this memory ((Byte/Second))
system.mem_ctrls.bwRead::total               16703990                       # Total read bandwidth from this memory ((Byte/Second))
system.mem_ctrls.bwInstRead::cpu.inst          486766                       # Instruction read bandwidth from this memory ((Byte/Second))
system.mem_ctrls.bwInstRead::total             486766                       # Instruction read bandwidth from this memory ((Byte/Second))
system.mem_ctrls.bwWrite::writebacks          6705111                       # Write bandwidth from this memory ((Byte/Second))
system.mem_ctrls.bwWrite::cpu.data            4895306                       # Write bandwidth from this memory ((Byte/Second))
system.mem_ctrls.bwWrite::total              11600418                       # Write bandwidth from this memory ((Byte/Second))
system.mem_ctrls.bwTotal::writebacks          6705111                       # Total bandwidth to/from this memory ((Byte/Second))
system.mem_ctrls.bwTotal::cpu.inst             486766                       # Total bandwidth to/from this memory ((Byte/Second))
system.mem_ctrls.bwTotal::cpu.data           21112530                       # Total bandwidth to/from this memory ((Byte/Second))
system.mem_ctrls.bwTotal::total              28304407                       # Total bandwidth to/from this memory ((Byte/Second))
system.mem_ctrls.power_state.pwrStateResidencyTicks::UNDEFINED 241134247854                       # Cumulative time (in ticks) in various power states (Tick)
system.membus.transDist::ReadResp                5770                       # Transaction distribution (Count)
system.membus.transDist::WriteReq             1180426                       # Transaction distribution (Count)
system.membus.transDist::WriteResp            1180426                       # Transaction distribution (Count)
system.membus.transDist::WritebackDirty         25263                       # Transaction distribution (Count)
system.membus.transDist::CleanEvict              4635                       # Transaction distribution (Count)
system.membus.transDist::ReadExReq              57166                       # Transaction distribution (Count)
system.membus.transDist::ReadExResp             57166                       # Transaction distribution (Count)
system.membus.transDist::ReadSharedReq           5770                       # Transaction distribution (Count)
system.membus.pktCount_system.l2.mem_side_port::system.mem_ctrls.port      2516622                       # Packet count per connected requestor and responder (Count)
system.membus.pktCount_system.l2.mem_side_port::total      2516622                       # Packet count per connected requestor and responder (Count)
system.membus.pktCount::total                 2516622                       # Packet count per connected requestor and responder (Count)
system.membus.pktSize_system.l2.mem_side_port::system.mem_ctrls.port      6825162                       # Cumulative packet size per connected requestor and responder (Byte)
system.membus.pktSize_system.l2.mem_side_port::total      6825162                       # Cumulative packet size per connected requestor and responder (Byte)
system.membus.pktSize::total                  6825162                       # Cumulative packet size per connected requestor and responder (Byte)
system.membus.snoops                                0                       # Total snoops (Count)
system.membus.snoopTraffic                          0                       # Total snoop traffic (Byte)
system.membus.snoopFanout::samples            1243362                       # Request fanout histogram (Count)
system.membus.snoopFanout::mean                     0                       # Request fanout histogram (Count)
system.membus.snoopFanout::stdev                    0                       # Request fanout histogram (Count)
system.membus.snoopFanout::underflows               0      0.00%      0.00% # Request fanout histogram (Count)
system.membus.snoopFanout::0                  1243362    100.00%    100.00% # Request fanout histogram (Count)
system.membus.snoopFanout::1                        0      0.00%    100.00% # Request fanout histogram (Count)
system.membus.snoopFanout::overflows                0      0.00%    100.00% # Request fanout histogram (Count)
system.membus.snoopFanout::min_value                0                       # Request fanout histogram (Count)
system.membus.snoopFanout::max_value                0                       # Request fanout histogram (Count)
system.membus.snoopFanout::total              1243362                       # Request fanout histogram (Count)
system.membus.power_state.pwrStateResidencyTicks::UNDEFINED 241134247854                       # Cumulative time (in ticks) in various power states (Tick)
system.membus.snoop_filter.totRequests          92834                       # Total number of requests made to the snoop filter. (Count)
system.membus.snoop_filter.hitSingleRequests        29898                       # Number of requests hitting in the snoop filter with a single holder of the requested data. (Count)
system.membus.snoop_filter.hitMultiRequests            0                       # Number of requests hitting in the snoop filter with multiple (>1) holders of the requested data. (Count)
system.membus.snoop_filter.totSnoops                0                       # Total number of snoops made to the snoop filter. (Count)
system.membus.snoop_filter.hitSingleSnoops            0                       # Number of snoops hitting in the snoop filter with a single holder of the requested data. (Count)
system.membus.snoop_filter.hitMultiSnoops            0                       # Number of snoops hitting in the snoop filter with multiple (>1) holders of the requested data. (Count)
system.tol2bus.transDist::ReadResp               8011                       # Transaction distribution (Count)
system.tol2bus.transDist::WriteReq            1180426                       # Transaction distribution (Count)
system.tol2bus.transDist::WriteResp           1180426                       # Transaction distribution (Count)
system.tol2bus.transDist::WritebackDirty        57740                       # Transaction distribution (Count)
system.tol2bus.transDist::WritebackClean         1934                       # Transaction distribution (Count)
system.tol2bus.transDist::CleanEvict             4612                       # Transaction distribution (Count)
system.tol2bus.transDist::ReadExReq             57298                       # Transaction distribution (Count)
system.tol2bus.transDist::ReadExResp            57298                       # Transaction distribution (Count)
system.tol2bus.transDist::ReadCleanReq           2445                       # Transaction distribution (Count)
system.tol2bus.transDist::ReadSharedReq          5566                       # Transaction distribution (Count)
system.tol2bus.pktCount_system.cpu.icache.mem_side_port::system.l2.cpu_side_port         6824                       # Packet count per connected requestor and responder (Count)
system.tol2bus.pktCount_system.cpu.dcache.mem_side_port::system.l2.cpu_side_port      2548932                       # Packet count per connected requestor and responder (Count)
system.tol2bus.pktCount::total                2555756                       # Packet count per connected requestor and responder (Count)
system.tol2bus.pktSize_system.cpu.icache.mem_side_port::system.l2.cpu_side_port       280256                       # Cumulative packet size per connected requestor and responder (Byte)
system.tol2bus.pktSize_system.cpu.dcache.mem_side_port::system.l2.cpu_side_port      8899082                       # Cumulative packet size per connected requestor and responder (Byte)
system.tol2bus.pktSize::total                 9179338                       # Cumulative packet size per connected requestor and responder (Byte)
system.tol2bus.snoops                           30418                       # Total snoops (Count)
system.tol2bus.snoopTraffic                   1616832                       # Total snoop traffic (Byte)
system.tol2bus.snoopFanout::samples           1276153                       # Request fanout histogram (Count)
system.tol2bus.snoopFanout::mean             0.000407                       # Request fanout histogram (Count)
system.tol2bus.snoopFanout::stdev            0.020182                       # Request fanout histogram (Count)
system.tol2bus.snoopFanout::underflows              0      0.00%      0.00% # Request fanout histogram (Count)
system.tol2bus.snoopFanout::0                 1275633     99.96%     99.96% # Request fanout histogram (Count)
system.tol2bus.snoopFanout::1                     520      0.04%    100.00% # Request fanout histogram (Count)
system.tol2bus.snoopFanout::2                       0      0.00%    100.00% # Request fanout histogram (Count)
system.tol2bus.snoopFanout::3                       0      0.00%    100.00% # Request fanout histogram (Count)
system.tol2bus.snoopFanout::4                       0      0.00%    100.00% # Request fanout histogram (Count)
system.tol2bus.snoopFanout::overflows               0      0.00%    100.00% # Request fanout histogram (Count)
system.tol2bus.snoopFanout::min_value               0                       # Request fanout histogram (Count)
system.tol2bus.snoopFanout::max_value               1                       # Request fanout histogram (Count)
system.tol2bus.snoopFanout::total             1276153                       # Request fanout histogram (Count)
system.tol2bus.power_state.pwrStateResidencyTicks::UNDEFINED 241134247854                       # Cumulative time (in ticks) in various power states (Tick)
system.tol2bus.snoop_filter.totRequests        129595                       # Total number of requests made to the snoop filter. (Count)
system.tol2bus.snoop_filter.hitSingleRequests        64286                       # Number of requests hitting in the snoop filter with a single holder of the requested data. (Count)
system.tol2bus.snoop_filter.hitMultiRequests            0                       # Number of requests hitting in the snoop filter with multiple (>1) holders of the requested data. (Count)
system.tol2bus.snoop_filter.totSnoops             520                       # Total number of snoops made to the snoop filter. (Count)
system.tol2bus.snoop_filter.hitSingleSnoops          520                       # Number of snoops hitting in the snoop filter with a single holder of the requested data. (Count)
system.tol2bus.snoop_filter.hitMultiSnoops            0                       # Number of snoops hitting in the snoop filter with multiple (>1) holders of the requested data. (Count)
system.voltage_domain.voltage                       1                       # Voltage in Volts (Volt)
system.workload.inst.arm                            0                       # number of arm instructions executed (Count)
system.workload.inst.quiesce                        0                       # number of quiesce instructions executed (Count)

---------- End Simulation Statistics   ----------
