
---------- Begin Simulation Statistics ----------
simSeconds                                   1.875210                       # Number of seconds simulated (Second)
simTicks                                 1875209896090                       # Number of ticks simulated (Tick)
finalTick                                1875209896090                       # Number of ticks from beginning of simulation (restored from checkpoints and never reset) (Tick)
simFreq                                  1000000000000                       # The number of ticks per simulated second ((Tick/Second))
hostSeconds                                   3650.39                       # Real time elapsed on the host (Second)
hostTickRate                                513701012                       # The number of ticks simulated per host second (ticks/s) ((Tick/Second))
hostMemory                                    1365904                       # Number of bytes of host memory used (Byte)
simInsts                                     67533314                       # Number of instructions simulated (Count)
simOps                                      122482935                       # Number of ops (including micro ops) simulated (Count)
hostInstRate                                    18500                       # Simulator instruction rate (inst/s) ((Count/Second))
hostOpRate                                      33553                       # Simulator op (including micro ops) rate (op/s) ((Count/Second))
system.clk_domain.clock                          2500                       # Clock period in ticks (Tick)
system.cpu.numCycles                       5991085931                       # Number of cpu cycles simulated (Cycle)
system.cpu.cpi                              88.713045                       # CPI: cycles per instruction (core level) ((Cycle/Count))
system.cpu.ipc                               0.011272                       # IPC: instructions per cycle (core level) ((Count/Cycle))
system.cpu.numWorkItemsStarted                      0                       # Number of work items this cpu started (Count)
system.cpu.numWorkItemsCompleted                    0                       # Number of work items this cpu completed (Count)
system.cpu.instsAdded                       123302314                       # Number of instructions added to the IQ (excludes non-spec) (Count)
system.cpu.nonSpecInstsAdded                     1129                       # Number of non-speculative instructions added to the IQ (Count)
system.cpu.instsIssued                      123372276                       # Number of instructions issued (Count)
system.cpu.squashedInstsIssued                   1947                       # Number of squashed instructions issued (Count)
system.cpu.squashedInstsExamined               820502                       # Number of squashed instructions iterated over during squash; mainly for profiling (Count)
system.cpu.squashedOperandsExamined           1385121                       # Number of squashed operands that are examined and possibly removed from graph (Count)
system.cpu.squashedNonSpecRemoved                 376                       # Number of squashed non-spec instructions that were removed (Count)
system.cpu.numIssuedDist::samples          5988027634                       # Number of insts issued each cycle (Count)
system.cpu.numIssuedDist::mean               0.020603                       # Number of insts issued each cycle (Count)
system.cpu.numIssuedDist::stdev              0.297275                       # Number of insts issued each cycle (Count)
system.cpu.numIssuedDist::underflows                0      0.00%      0.00% # Number of insts issued each cycle (Count)
system.cpu.numIssuedDist::0                5949175695     99.35%     99.35% # Number of insts issued each cycle (Count)
system.cpu.numIssuedDist::1                  10055342      0.17%     99.52% # Number of insts issued each cycle (Count)
system.cpu.numIssuedDist::2                   6698711      0.11%     99.63% # Number of insts issued each cycle (Count)
system.cpu.numIssuedDist::3                   6571112      0.11%     99.74% # Number of insts issued each cycle (Count)
system.cpu.numIssuedDist::4                   6083173      0.10%     99.84% # Number of insts issued each cycle (Count)
system.cpu.numIssuedDist::5                   3609170      0.06%     99.90% # Number of insts issued each cycle (Count)
system.cpu.numIssuedDist::6                   3741673      0.06%     99.97% # Number of insts issued each cycle (Count)
system.cpu.numIssuedDist::7                   1364468      0.02%     99.99% # Number of insts issued each cycle (Count)
system.cpu.numIssuedDist::8                    728290      0.01%    100.00% # Number of insts issued each cycle (Count)
system.cpu.numIssuedDist::overflows                 0      0.00%    100.00% # Number of insts issued each cycle (Count)
system.cpu.numIssuedDist::min_value                 0                       # Number of insts issued each cycle (Count)
system.cpu.numIssuedDist::max_value                 8                       # Number of insts issued each cycle (Count)
system.cpu.numIssuedDist::total            5988027634                       # Number of insts issued each cycle (Count)
system.cpu.statFuBusy::No_OpClass                   0      0.00%      0.00% # attempts to use FU when none available (Count)
system.cpu.statFuBusy::IntAlu                  519454     98.19%     98.19% # attempts to use FU when none available (Count)
system.cpu.statFuBusy::IntMult                      0      0.00%     98.19% # attempts to use FU when none available (Count)
system.cpu.statFuBusy::IntDiv                       0      0.00%     98.19% # attempts to use FU when none available (Count)
system.cpu.statFuBusy::FloatAdd                     0      0.00%     98.19% # attempts to use FU when none available (Count)
system.cpu.statFuBusy::FloatCmp                     0      0.00%     98.19% # attempts to use FU when none available (Count)
system.cpu.statFuBusy::FloatCvt                     0      0.00%     98.19% # attempts to use FU when none available (Count)
system.cpu.statFuBusy::FloatMult                    0      0.00%     98.19% # attempts to use FU when none available (Count)
system.cpu.statFuBusy::FloatMultAcc                 0      0.00%     98.19% # attempts to use FU when none available (Count)
system.cpu.statFuBusy::FloatDiv                     0      0.00%     98.19% # attempts to use FU when none available (Count)
system.cpu.statFuBusy::FloatMisc                    0      0.00%     98.19% # attempts to use FU when none available (Count)
system.cpu.statFuBusy::FloatSqrt                    0      0.00%     98.19% # attempts to use FU when none available (Count)
system.cpu.statFuBusy::SimdAdd                      0      0.00%     98.19% # attempts to use FU when none available (Count)
system.cpu.statFuBusy::SimdAddAcc                   0      0.00%     98.19% # attempts to use FU when none available (Count)
system.cpu.statFuBusy::SimdAlu                     39      0.01%     98.20% # attempts to use FU when none available (Count)
system.cpu.statFuBusy::SimdCmp                      0      0.00%     98.20% # attempts to use FU when none available (Count)
system.cpu.statFuBusy::SimdCvt                      7      0.00%     98.20% # attempts to use FU when none available (Count)
system.cpu.statFuBusy::SimdMisc                     3      0.00%     98.20% # attempts to use FU when none available (Count)
system.cpu.statFuBusy::SimdMult                     0      0.00%     98.20% # attempts to use FU when none available (Count)
system.cpu.statFuBusy::SimdMultAcc                  0      0.00%     98.20% # attempts to use FU when none available (Count)
system.cpu.statFuBusy::SimdMatMultAcc               0      0.00%     98.20% # attempts to use FU when none available (Count)
system.cpu.statFuBusy::SimdShift                    0      0.00%     98.20% # attempts to use FU when none available (Count)
system.cpu.statFuBusy::SimdShiftAcc                 0      0.00%     98.20% # attempts to use FU when none available (Count)
system.cpu.statFuBusy::SimdDiv                      0      0.00%     98.20% # attempts to use FU when none available (Count)
system.cpu.statFuBusy::SimdSqrt                     0      0.00%     98.20% # attempts to use FU when none available (Count)
system.cpu.statFuBusy::SimdFloatAdd                 0      0.00%     98.20% # attempts to use FU when none available (Count)
system.cpu.statFuBusy::SimdFloatAlu                 0      0.00%     98.20% # attempts to use FU when none available (Count)
system.cpu.statFuBusy::SimdFloatCmp                 0      0.00%     98.20% # attempts to use FU when none available (Count)
system.cpu.statFuBusy::SimdFloatCvt                 2      0.00%     98.20% # attempts to use FU when none available (Count)
system.cpu.statFuBusy::SimdFloatDiv                 0      0.00%     98.20% # attempts to use FU when none available (Count)
system.cpu.statFuBusy::SimdFloatMisc                0      0.00%     98.20% # attempts to use FU when none available (Count)
system.cpu.statFuBusy::SimdFloatMult                0      0.00%     98.20% # attempts to use FU when none available (Count)
system.cpu.statFuBusy::SimdFloatMultAcc             0      0.00%     98.20% # attempts to use FU when none available (Count)
system.cpu.statFuBusy::SimdFloatMatMultAcc            0      0.00%     98.20% # attempts to use FU when none available (Count)
system.cpu.statFuBusy::SimdFloatSqrt                0      0.00%     98.20% # attempts to use FU when none available (Count)
system.cpu.statFuBusy::SimdReduceAdd                0      0.00%     98.20% # attempts to use FU when none available (Count)
system.cpu.statFuBusy::SimdReduceAlu                0      0.00%     98.20% # attempts to use FU when none available (Count)
system.cpu.statFuBusy::SimdReduceCmp                0      0.00%     98.20% # attempts to use FU when none available (Count)
system.cpu.statFuBusy::SimdFloatReduceAdd            0      0.00%     98.20% # attempts to use FU when none available (Count)
system.cpu.statFuBusy::SimdFloatReduceCmp            0      0.00%     98.20% # attempts to use FU when none available (Count)
system.cpu.statFuBusy::SimdAes                      0      0.00%     98.20% # attempts to use FU when none available (Count)
system.cpu.statFuBusy::SimdAesMix                   0      0.00%     98.20% # attempts to use FU when none available (Count)
system.cpu.statFuBusy::SimdSha1Hash                 0      0.00%     98.20% # attempts to use FU when none available (Count)
system.cpu.statFuBusy::SimdSha1Hash2                0      0.00%     98.20% # attempts to use FU when none available (Count)
system.cpu.statFuBusy::SimdSha256Hash               0      0.00%     98.20% # attempts to use FU when none available (Count)
system.cpu.statFuBusy::SimdSha256Hash2              0      0.00%     98.20% # attempts to use FU when none available (Count)
system.cpu.statFuBusy::SimdShaSigma2                0      0.00%     98.20% # attempts to use FU when none available (Count)
system.cpu.statFuBusy::SimdShaSigma3                0      0.00%     98.20% # attempts to use FU when none available (Count)
system.cpu.statFuBusy::SimdPredAlu                  0      0.00%     98.20% # attempts to use FU when none available (Count)
system.cpu.statFuBusy::Matrix                       0      0.00%     98.20% # attempts to use FU when none available (Count)
system.cpu.statFuBusy::MatrixMov                    0      0.00%     98.20% # attempts to use FU when none available (Count)
system.cpu.statFuBusy::MatrixOP                     0      0.00%     98.20% # attempts to use FU when none available (Count)
system.cpu.statFuBusy::MemRead                   5891      1.11%     99.32% # attempts to use FU when none available (Count)
system.cpu.statFuBusy::MemWrite                  3496      0.66%     99.98% # attempts to use FU when none available (Count)
system.cpu.statFuBusy::FloatMemRead               111      0.02%    100.00% # attempts to use FU when none available (Count)
system.cpu.statFuBusy::FloatMemWrite               14      0.00%    100.00% # attempts to use FU when none available (Count)
system.cpu.statFuBusy::IprAccess                    0      0.00%    100.00% # attempts to use FU when none available (Count)
system.cpu.statFuBusy::InstPrefetch                 0      0.00%    100.00% # attempts to use FU when none available (Count)
system.cpu.statFuBusy::SimdUnitStrideLoad            0      0.00%    100.00% # attempts to use FU when none available (Count)
system.cpu.statFuBusy::SimdUnitStrideStore            0      0.00%    100.00% # attempts to use FU when none available (Count)
system.cpu.statFuBusy::SimdUnitStrideMaskLoad            0      0.00%    100.00% # attempts to use FU when none available (Count)
system.cpu.statFuBusy::SimdUnitStrideMaskStore            0      0.00%    100.00% # attempts to use FU when none available (Count)
system.cpu.statFuBusy::SimdStridedLoad              0      0.00%    100.00% # attempts to use FU when none available (Count)
system.cpu.statFuBusy::SimdStridedStore             0      0.00%    100.00% # attempts to use FU when none available (Count)
system.cpu.statFuBusy::SimdIndexedLoad              0      0.00%    100.00% # attempts to use FU when none available (Count)
system.cpu.statFuBusy::SimdIndexedStore             0      0.00%    100.00% # attempts to use FU when none available (Count)
system.cpu.statFuBusy::SimdWholeRegisterLoad            0      0.00%    100.00% # attempts to use FU when none available (Count)
system.cpu.statFuBusy::SimdWholeRegisterStore            0      0.00%    100.00% # attempts to use FU when none available (Count)
system.cpu.statFuBusy::SimdUnitStrideFaultOnlyFirstLoad            0      0.00%    100.00% # attempts to use FU when none available (Count)
system.cpu.statFuBusy::SimdUnitStrideSegmentedLoad            0      0.00%    100.00% # attempts to use FU when none available (Count)
system.cpu.statFuBusy::SimdUnitStrideSegmentedStore            0      0.00%    100.00% # attempts to use FU when none available (Count)
system.cpu.statFuBusy::SimdExt                      0      0.00%    100.00% # attempts to use FU when none available (Count)
system.cpu.statFuBusy::SimdFloatExt                 0      0.00%    100.00% # attempts to use FU when none available (Count)
system.cpu.statFuBusy::SimdConfig                   0      0.00%    100.00% # attempts to use FU when none available (Count)
system.cpu.statIssuedInstType_0::No_OpClass         7345      0.01%      0.01% # Number of instructions issued per FU type, per thread (Count)
system.cpu.statIssuedInstType_0::IntAlu      80151032     64.97%     64.97% # Number of instructions issued per FU type, per thread (Count)
system.cpu.statIssuedInstType_0::IntMult       603921      0.49%     65.46% # Number of instructions issued per FU type, per thread (Count)
system.cpu.statIssuedInstType_0::IntDiv          4405      0.00%     65.47% # Number of instructions issued per FU type, per thread (Count)
system.cpu.statIssuedInstType_0::FloatAdd      2722230      2.21%     67.67% # Number of instructions issued per FU type, per thread (Count)
system.cpu.statIssuedInstType_0::FloatCmp            0      0.00%     67.67% # Number of instructions issued per FU type, per thread (Count)
system.cpu.statIssuedInstType_0::FloatCvt          528      0.00%     67.67% # Number of instructions issued per FU type, per thread (Count)
system.cpu.statIssuedInstType_0::FloatMult            0      0.00%     67.67% # Number of instructions issued per FU type, per thread (Count)
system.cpu.statIssuedInstType_0::FloatMultAcc            0      0.00%     67.67% # Number of instructions issued per FU type, per thread (Count)
system.cpu.statIssuedInstType_0::FloatDiv            0      0.00%     67.67% # Number of instructions issued per FU type, per thread (Count)
system.cpu.statIssuedInstType_0::FloatMisc            0      0.00%     67.67% # Number of instructions issued per FU type, per thread (Count)
system.cpu.statIssuedInstType_0::FloatSqrt            0      0.00%     67.67% # Number of instructions issued per FU type, per thread (Count)
system.cpu.statIssuedInstType_0::SimdAdd           16      0.00%     67.67% # Number of instructions issued per FU type, per thread (Count)
system.cpu.statIssuedInstType_0::SimdAddAcc            0      0.00%     67.67% # Number of instructions issued per FU type, per thread (Count)
system.cpu.statIssuedInstType_0::SimdAlu      1209276      0.98%     68.65% # Number of instructions issued per FU type, per thread (Count)
system.cpu.statIssuedInstType_0::SimdCmp            0      0.00%     68.65% # Number of instructions issued per FU type, per thread (Count)
system.cpu.statIssuedInstType_0::SimdCvt          594      0.00%     68.65% # Number of instructions issued per FU type, per thread (Count)
system.cpu.statIssuedInstType_0::SimdMisc       906984      0.74%     69.39% # Number of instructions issued per FU type, per thread (Count)
system.cpu.statIssuedInstType_0::SimdMult            0      0.00%     69.39% # Number of instructions issued per FU type, per thread (Count)
system.cpu.statIssuedInstType_0::SimdMultAcc            0      0.00%     69.39% # Number of instructions issued per FU type, per thread (Count)
system.cpu.statIssuedInstType_0::SimdMatMultAcc            0      0.00%     69.39% # Number of instructions issued per FU type, per thread (Count)
system.cpu.statIssuedInstType_0::SimdShift            0      0.00%     69.39% # Number of instructions issued per FU type, per thread (Count)
system.cpu.statIssuedInstType_0::SimdShiftAcc            0      0.00%     69.39% # Number of instructions issued per FU type, per thread (Count)
system.cpu.statIssuedInstType_0::SimdDiv            0      0.00%     69.39% # Number of instructions issued per FU type, per thread (Count)
system.cpu.statIssuedInstType_0::SimdSqrt            0      0.00%     69.39% # Number of instructions issued per FU type, per thread (Count)
system.cpu.statIssuedInstType_0::SimdFloatAdd       603698      0.49%     69.88% # Number of instructions issued per FU type, per thread (Count)
system.cpu.statIssuedInstType_0::SimdFloatAlu            0      0.00%     69.88% # Number of instructions issued per FU type, per thread (Count)
system.cpu.statIssuedInstType_0::SimdFloatCmp            0      0.00%     69.88% # Number of instructions issued per FU type, per thread (Count)
system.cpu.statIssuedInstType_0::SimdFloatCvt      1208553      0.98%     70.86% # Number of instructions issued per FU type, per thread (Count)
system.cpu.statIssuedInstType_0::SimdFloatDiv       301825      0.24%     71.10% # Number of instructions issued per FU type, per thread (Count)
system.cpu.statIssuedInstType_0::SimdFloatMisc            0      0.00%     71.10% # Number of instructions issued per FU type, per thread (Count)
system.cpu.statIssuedInstType_0::SimdFloatMult       302233      0.24%     71.35% # Number of instructions issued per FU type, per thread (Count)
system.cpu.statIssuedInstType_0::SimdFloatMultAcc            0      0.00%     71.35% # Number of instructions issued per FU type, per thread (Count)
system.cpu.statIssuedInstType_0::SimdFloatMatMultAcc            0      0.00%     71.35% # Number of instructions issued per FU type, per thread (Count)
system.cpu.statIssuedInstType_0::SimdFloatSqrt            0      0.00%     71.35% # Number of instructions issued per FU type, per thread (Count)
system.cpu.statIssuedInstType_0::SimdReduceAdd            0      0.00%     71.35% # Number of instructions issued per FU type, per thread (Count)
system.cpu.statIssuedInstType_0::SimdReduceAlu            0      0.00%     71.35% # Number of instructions issued per FU type, per thread (Count)
system.cpu.statIssuedInstType_0::SimdReduceCmp            0      0.00%     71.35% # Number of instructions issued per FU type, per thread (Count)
system.cpu.statIssuedInstType_0::SimdFloatReduceAdd            0      0.00%     71.35% # Number of instructions issued per FU type, per thread (Count)
system.cpu.statIssuedInstType_0::SimdFloatReduceCmp            0      0.00%     71.35% # Number of instructions issued per FU type, per thread (Count)
system.cpu.statIssuedInstType_0::SimdAes            0      0.00%     71.35% # Number of instructions issued per FU type, per thread (Count)
system.cpu.statIssuedInstType_0::SimdAesMix            0      0.00%     71.35% # Number of instructions issued per FU type, per thread (Count)
system.cpu.statIssuedInstType_0::SimdSha1Hash            0      0.00%     71.35% # Number of instructions issued per FU type, per thread (Count)
system.cpu.statIssuedInstType_0::SimdSha1Hash2            0      0.00%     71.35% # Number of instructions issued per FU type, per thread (Count)
system.cpu.statIssuedInstType_0::SimdSha256Hash            0      0.00%     71.35% # Number of instructions issued per FU type, per thread (Count)
system.cpu.statIssuedInstType_0::SimdSha256Hash2            0      0.00%     71.35% # Number of instructions issued per FU type, per thread (Count)
system.cpu.statIssuedInstType_0::SimdShaSigma2            0      0.00%     71.35% # Number of instructions issued per FU type, per thread (Count)
system.cpu.statIssuedInstType_0::SimdShaSigma3            0      0.00%     71.35% # Number of instructions issued per FU type, per thread (Count)
system.cpu.statIssuedInstType_0::SimdPredAlu            0      0.00%     71.35% # Number of instructions issued per FU type, per thread (Count)
system.cpu.statIssuedInstType_0::Matrix             0      0.00%     71.35% # Number of instructions issued per FU type, per thread (Count)
system.cpu.statIssuedInstType_0::MatrixMov            0      0.00%     71.35% # Number of instructions issued per FU type, per thread (Count)
system.cpu.statIssuedInstType_0::MatrixOP            0      0.00%     71.35% # Number of instructions issued per FU type, per thread (Count)
system.cpu.statIssuedInstType_0::MemRead     19935180     16.16%     87.51% # Number of instructions issued per FU type, per thread (Count)
system.cpu.statIssuedInstType_0::MemWrite     11179068      9.06%     96.57% # Number of instructions issued per FU type, per thread (Count)
system.cpu.statIssuedInstType_0::FloatMemRead      3024866      2.45%     99.02% # Number of instructions issued per FU type, per thread (Count)
system.cpu.statIssuedInstType_0::FloatMemWrite      1210522      0.98%    100.00% # Number of instructions issued per FU type, per thread (Count)
system.cpu.statIssuedInstType_0::IprAccess            0      0.00%    100.00% # Number of instructions issued per FU type, per thread (Count)
system.cpu.statIssuedInstType_0::InstPrefetch            0      0.00%    100.00% # Number of instructions issued per FU type, per thread (Count)
system.cpu.statIssuedInstType_0::SimdUnitStrideLoad            0      0.00%    100.00% # Number of instructions issued per FU type, per thread (Count)
system.cpu.statIssuedInstType_0::SimdUnitStrideStore            0      0.00%    100.00% # Number of instructions issued per FU type, per thread (Count)
system.cpu.statIssuedInstType_0::SimdUnitStrideMaskLoad            0      0.00%    100.00% # Number of instructions issued per FU type, per thread (Count)
system.cpu.statIssuedInstType_0::SimdUnitStrideMaskStore            0      0.00%    100.00% # Number of instructions issued per FU type, per thread (Count)
system.cpu.statIssuedInstType_0::SimdStridedLoad            0      0.00%    100.00% # Number of instructions issued per FU type, per thread (Count)
system.cpu.statIssuedInstType_0::SimdStridedStore            0      0.00%    100.00% # Number of instructions issued per FU type, per thread (Count)
system.cpu.statIssuedInstType_0::SimdIndexedLoad            0      0.00%    100.00% # Number of instructions issued per FU type, per thread (Count)
system.cpu.statIssuedInstType_0::SimdIndexedStore            0      0.00%    100.00% # Number of instructions issued per FU type, per thread (Count)
system.cpu.statIssuedInstType_0::SimdWholeRegisterLoad            0      0.00%    100.00% # Number of instructions issued per FU type, per thread (Count)
system.cpu.statIssuedInstType_0::SimdWholeRegisterStore            0      0.00%    100.00% # Number of instructions issued per FU type, per thread (Count)
system.cpu.statIssuedInstType_0::SimdUnitStrideFaultOnlyFirstLoad            0      0.00%    100.00% # Number of instructions issued per FU type, per thread (Count)
system.cpu.statIssuedInstType_0::SimdUnitStrideSegmentedLoad            0      0.00%    100.00% # Number of instructions issued per FU type, per thread (Count)
system.cpu.statIssuedInstType_0::SimdUnitStrideSegmentedStore            0      0.00%    100.00% # Number of instructions issued per FU type, per thread (Count)
system.cpu.statIssuedInstType_0::SimdExt            0      0.00%    100.00% # Number of instructions issued per FU type, per thread (Count)
system.cpu.statIssuedInstType_0::SimdFloatExt            0      0.00%    100.00% # Number of instructions issued per FU type, per thread (Count)
system.cpu.statIssuedInstType_0::SimdConfig            0      0.00%    100.00% # Number of instructions issued per FU type, per thread (Count)
system.cpu.statIssuedInstType_0::total      123372276                       # Number of instructions issued per FU type, per thread (Count)
system.cpu.issueRate                         0.020593                       # Inst issue rate ((Count/Cycle))
system.cpu.fuBusy                              529017                       # FU busy when requested (Count)
system.cpu.fuBusyRate                        0.004288                       # FU busy rate (busy events/executed inst) ((Count/Count))
system.cpu.intInstQueueReads               6212320049                       # Number of integer instruction queue reads (Count)
system.cpu.intInstQueueWrites               112619603                       # Number of integer instruction queue writes (Count)
system.cpu.intInstQueueWakeupAccesses       111501580                       # Number of integer instruction queue wakeup accesses (Count)
system.cpu.fpInstQueueReads                  22983101                       # Number of floating instruction queue reads (Count)
system.cpu.fpInstQueueWrites                 11505431                       # Number of floating instruction queue writes (Count)
system.cpu.fpInstQueueWakeupAccesses         11490946                       # Number of floating instruction queue wakeup accesses (Count)
system.cpu.vecInstQueueReads                        0                       # Number of vector instruction queue reads (Count)
system.cpu.vecInstQueueWrites                       0                       # Number of vector instruction queue writes (Count)
system.cpu.vecInstQueueWakeupAccesses               0                       # Number of vector instruction queue wakeup accesses (Count)
system.cpu.intAluAccesses                   112402324                       # Number of integer alu accesses (Count)
system.cpu.fpAluAccesses                     11491624                       # Number of floating point alu accesses (Count)
system.cpu.vecAluAccesses                           0                       # Number of vector alu accesses (Count)
system.cpu.numSquashedInsts                     54013                       # Number of squashed instructions skipped in execute (Count)
system.cpu.numSwp                                   0                       # Number of swp insts executed (Count)
system.cpu.timesIdled                            2114                       # Number of times that the entire CPU went into an idle state and unscheduled itself (Count)
system.cpu.idleCycles                         3058297                       # Total number of cycles that the CPU has spent unscheduled due to idling (Cycle)
system.cpu.MemDepUnit__0.insertedLoads       22692102                       # Number of loads inserted to the mem dependence unit. (Count)
system.cpu.MemDepUnit__0.insertedStores      12410216                       # Number of stores inserted to the mem dependence unit. (Count)
system.cpu.MemDepUnit__0.conflictingLoads      7678138                       # Number of conflicting loads. (Count)
system.cpu.MemDepUnit__0.conflictingStores      1620590                       # Number of conflicting stores. (Count)
system.cpu.MemDepUnit__1.insertedLoads              0                       # Number of loads inserted to the mem dependence unit. (Count)
system.cpu.MemDepUnit__1.insertedStores             0                       # Number of stores inserted to the mem dependence unit. (Count)
system.cpu.MemDepUnit__1.conflictingLoads            0                       # Number of conflicting loads. (Count)
system.cpu.MemDepUnit__1.conflictingStores            0                       # Number of conflicting stores. (Count)
system.cpu.MemDepUnit__2.insertedLoads              0                       # Number of loads inserted to the mem dependence unit. (Count)
system.cpu.MemDepUnit__2.insertedStores             0                       # Number of stores inserted to the mem dependence unit. (Count)
system.cpu.MemDepUnit__2.conflictingLoads            0                       # Number of conflicting loads. (Count)
system.cpu.MemDepUnit__2.conflictingStores            0                       # Number of conflicting stores. (Count)
system.cpu.MemDepUnit__3.insertedLoads              0                       # Number of loads inserted to the mem dependence unit. (Count)
system.cpu.MemDepUnit__3.insertedStores             0                       # Number of stores inserted to the mem dependence unit. (Count)
system.cpu.MemDepUnit__3.conflictingLoads            0                       # Number of conflicting loads. (Count)
system.cpu.MemDepUnit__3.conflictingStores            0                       # Number of conflicting stores. (Count)
system.cpu.branchPred.lookups_0::NoBranch            0      0.00%      0.00% # Number of BP lookups (Count)
system.cpu.branchPred.lookups_0::Return       2733947     25.41%     25.41% # Number of BP lookups (Count)
system.cpu.branchPred.lookups_0::CallDirect      2702935     25.12%     50.53% # Number of BP lookups (Count)
system.cpu.branchPred.lookups_0::CallIndirect          713      0.01%     50.54% # Number of BP lookups (Count)
system.cpu.branchPred.lookups_0::DirectCond      4875296     45.31%     95.85% # Number of BP lookups (Count)
system.cpu.branchPred.lookups_0::DirectUncond        64031      0.60%     96.44% # Number of BP lookups (Count)
system.cpu.branchPred.lookups_0::IndirectCond            0      0.00%     96.44% # Number of BP lookups (Count)
system.cpu.branchPred.lookups_0::IndirectUncond       382592      3.56%    100.00% # Number of BP lookups (Count)
system.cpu.branchPred.lookups_0::total       10759514                       # Number of BP lookups (Count)
system.cpu.branchPred.squashes_0::NoBranch            0      0.00%      0.00% # Number of branches that got squashed (completely removed) as an earlier branch was mispredicted. (Count)
system.cpu.branchPred.squashes_0::Return        41677     25.46%     25.46% # Number of branches that got squashed (completely removed) as an earlier branch was mispredicted. (Count)
system.cpu.branchPred.squashes_0::CallDirect        11132      6.80%     32.26% # Number of branches that got squashed (completely removed) as an earlier branch was mispredicted. (Count)
system.cpu.branchPred.squashes_0::CallIndirect          242      0.15%     32.40% # Number of branches that got squashed (completely removed) as an earlier branch was mispredicted. (Count)
system.cpu.branchPred.squashes_0::DirectCond        98720     60.30%     92.70% # Number of branches that got squashed (completely removed) as an earlier branch was mispredicted. (Count)
system.cpu.branchPred.squashes_0::DirectUncond         9085      5.55%     98.25% # Number of branches that got squashed (completely removed) as an earlier branch was mispredicted. (Count)
system.cpu.branchPred.squashes_0::IndirectCond            0      0.00%     98.25% # Number of branches that got squashed (completely removed) as an earlier branch was mispredicted. (Count)
system.cpu.branchPred.squashes_0::IndirectUncond         2862      1.75%    100.00% # Number of branches that got squashed (completely removed) as an earlier branch was mispredicted. (Count)
system.cpu.branchPred.squashes_0::total        163718                       # Number of branches that got squashed (completely removed) as an earlier branch was mispredicted. (Count)
system.cpu.branchPred.corrected_0::NoBranch            0      0.00%      0.00% # Number of branches that got corrected but not yet commited. Branches get corrected by decode or after execute. Also a branch misprediction can be detected out-of-order. Therefore, a corrected branch might not end up beeing committed in case an even earlier branch was mispredicted (Count)
system.cpu.branchPred.corrected_0::Return           25      0.10%      0.10% # Number of branches that got corrected but not yet commited. Branches get corrected by decode or after execute. Also a branch misprediction can be detected out-of-order. Therefore, a corrected branch might not end up beeing committed in case an even earlier branch was mispredicted (Count)
system.cpu.branchPred.corrected_0::CallDirect          896      3.48%      3.58% # Number of branches that got corrected but not yet commited. Branches get corrected by decode or after execute. Also a branch misprediction can be detected out-of-order. Therefore, a corrected branch might not end up beeing committed in case an even earlier branch was mispredicted (Count)
system.cpu.branchPred.corrected_0::CallIndirect          191      0.74%      4.32% # Number of branches that got corrected but not yet commited. Branches get corrected by decode or after execute. Also a branch misprediction can be detected out-of-order. Therefore, a corrected branch might not end up beeing committed in case an even earlier branch was mispredicted (Count)
system.cpu.branchPred.corrected_0::DirectCond        23613     91.73%     96.05% # Number of branches that got corrected but not yet commited. Branches get corrected by decode or after execute. Also a branch misprediction can be detected out-of-order. Therefore, a corrected branch might not end up beeing committed in case an even earlier branch was mispredicted (Count)
system.cpu.branchPred.corrected_0::DirectUncond          669      2.60%     98.65% # Number of branches that got corrected but not yet commited. Branches get corrected by decode or after execute. Also a branch misprediction can be detected out-of-order. Therefore, a corrected branch might not end up beeing committed in case an even earlier branch was mispredicted (Count)
system.cpu.branchPred.corrected_0::IndirectCond            0      0.00%     98.65% # Number of branches that got corrected but not yet commited. Branches get corrected by decode or after execute. Also a branch misprediction can be detected out-of-order. Therefore, a corrected branch might not end up beeing committed in case an even earlier branch was mispredicted (Count)
system.cpu.branchPred.corrected_0::IndirectUncond          347      1.35%    100.00% # Number of branches that got corrected but not yet commited. Branches get corrected by decode or after execute. Also a branch misprediction can be detected out-of-order. Therefore, a corrected branch might not end up beeing committed in case an even earlier branch was mispredicted (Count)
system.cpu.branchPred.corrected_0::total        25741                       # Number of branches that got corrected but not yet commited. Branches get corrected by decode or after execute. Also a branch misprediction can be detected out-of-order. Therefore, a corrected branch might not end up beeing committed in case an even earlier branch was mispredicted (Count)
system.cpu.branchPred.earlyResteers_0::NoBranch            0                       # Number of branches that got redirected after decode. (Count)
system.cpu.branchPred.earlyResteers_0::Return            0                       # Number of branches that got redirected after decode. (Count)
system.cpu.branchPred.earlyResteers_0::CallDirect            0                       # Number of branches that got redirected after decode. (Count)
system.cpu.branchPred.earlyResteers_0::CallIndirect            0                       # Number of branches that got redirected after decode. (Count)
system.cpu.branchPred.earlyResteers_0::DirectCond            0                       # Number of branches that got redirected after decode. (Count)
system.cpu.branchPred.earlyResteers_0::DirectUncond            0                       # Number of branches that got redirected after decode. (Count)
system.cpu.branchPred.earlyResteers_0::IndirectCond            0                       # Number of branches that got redirected after decode. (Count)
system.cpu.branchPred.earlyResteers_0::IndirectUncond            0                       # Number of branches that got redirected after decode. (Count)
system.cpu.branchPred.earlyResteers_0::total            0                       # Number of branches that got redirected after decode. (Count)
system.cpu.branchPred.committed_0::NoBranch            0      0.00%      0.00% # Number of branches finally committed  (Count)
system.cpu.branchPred.committed_0::Return      2692270     25.41%     25.41% # Number of branches finally committed  (Count)
system.cpu.branchPred.committed_0::CallDirect      2691803     25.40%     50.81% # Number of branches finally committed  (Count)
system.cpu.branchPred.committed_0::CallIndirect          471      0.00%     50.82% # Number of branches finally committed  (Count)
system.cpu.branchPred.committed_0::DirectCond      4776575     45.08%     95.90% # Number of branches finally committed  (Count)
system.cpu.branchPred.committed_0::DirectUncond        54946      0.52%     96.42% # Number of branches finally committed  (Count)
system.cpu.branchPred.committed_0::IndirectCond            0      0.00%     96.42% # Number of branches finally committed  (Count)
system.cpu.branchPred.committed_0::IndirectUncond       379730      3.58%    100.00% # Number of branches finally committed  (Count)
system.cpu.branchPred.committed_0::total     10595795                       # Number of branches finally committed  (Count)
system.cpu.branchPred.mispredicted_0::NoBranch            0      0.00%      0.00% # Number of committed branches that were mispredicted. (Count)
system.cpu.branchPred.mispredicted_0::Return           11      0.05%      0.05% # Number of committed branches that were mispredicted. (Count)
system.cpu.branchPred.mispredicted_0::CallDirect          653      2.76%      2.81% # Number of committed branches that were mispredicted. (Count)
system.cpu.branchPred.mispredicted_0::CallIndirect          174      0.74%      3.54% # Number of committed branches that were mispredicted. (Count)
system.cpu.branchPred.mispredicted_0::DirectCond        22171     93.79%     97.33% # Number of committed branches that were mispredicted. (Count)
system.cpu.branchPred.mispredicted_0::DirectUncond          315      1.33%     98.67% # Number of committed branches that were mispredicted. (Count)
system.cpu.branchPred.mispredicted_0::IndirectCond            0      0.00%     98.67% # Number of committed branches that were mispredicted. (Count)
system.cpu.branchPred.mispredicted_0::IndirectUncond          315      1.33%    100.00% # Number of committed branches that were mispredicted. (Count)
system.cpu.branchPred.mispredicted_0::total        23639                       # Number of committed branches that were mispredicted. (Count)
system.cpu.branchPred.targetProvider_0::NoTarget      2422126     22.51%     22.51% # The component providing the target for taken branches (Count)
system.cpu.branchPred.targetProvider_0::BTB      5222488     48.54%     71.05% # The component providing the target for taken branches (Count)
system.cpu.branchPred.targetProvider_0::RAS      2733938     25.41%     96.46% # The component providing the target for taken branches (Count)
system.cpu.branchPred.targetProvider_0::Indirect       380962      3.54%    100.00% # The component providing the target for taken branches (Count)
system.cpu.branchPred.targetProvider_0::total     10759514                       # The component providing the target for taken branches (Count)
system.cpu.branchPred.targetWrong_0::NoBranch        19875     78.09%     78.09% # Number of branches where the target was incorrect or not available at prediction time. (Count)
system.cpu.branchPred.targetWrong_0::Return         5527     21.72%     99.81% # Number of branches where the target was incorrect or not available at prediction time. (Count)
system.cpu.branchPred.targetWrong_0::CallDirect           25      0.10%     99.91% # Number of branches where the target was incorrect or not available at prediction time. (Count)
system.cpu.branchPred.targetWrong_0::CallIndirect           23      0.09%    100.00% # Number of branches where the target was incorrect or not available at prediction time. (Count)
system.cpu.branchPred.targetWrong_0::DirectCond            0      0.00%    100.00% # Number of branches where the target was incorrect or not available at prediction time. (Count)
system.cpu.branchPred.targetWrong_0::DirectUncond            0      0.00%    100.00% # Number of branches where the target was incorrect or not available at prediction time. (Count)
system.cpu.branchPred.targetWrong_0::IndirectCond            0      0.00%    100.00% # Number of branches where the target was incorrect or not available at prediction time. (Count)
system.cpu.branchPred.targetWrong_0::IndirectUncond            0      0.00%    100.00% # Number of branches where the target was incorrect or not available at prediction time. (Count)
system.cpu.branchPred.targetWrong_0::total        25450                       # Number of branches where the target was incorrect or not available at prediction time. (Count)
system.cpu.branchPred.condPredicted           4875296                       # Number of conditional branches predicted (Count)
system.cpu.branchPred.condPredictedTaken      2460318                       # Number of conditional branches predicted as taken (Count)
system.cpu.branchPred.condIncorrect             25741                       # Number of conditional branches incorrect (Count)
system.cpu.branchPred.predTakenBTBMiss           2327                       # Number of branches predicted taken but missed in BTB (Count)
system.cpu.branchPred.NotTakenMispredicted        20191                       # Number branches predicted 'not taken' but turned out to be taken (Count)
system.cpu.branchPred.TakenMispredicted          5550                       # Number branches predicted taken but are actually not taken (Count)
system.cpu.branchPred.BTBLookups             10759514                       # Number of BTB lookups (Count)
system.cpu.branchPred.BTBUpdates                19628                       # Number of BTB updates (Count)
system.cpu.branchPred.BTBHits                 5995910                       # Number of BTB hits (Count)
system.cpu.branchPred.BTBHitRatio            0.557266                       # BTB Hit Ratio (Ratio)
system.cpu.branchPred.BTBMispredicted            3110                       # Number BTB mispredictions. No target found or target wrong (Count)
system.cpu.branchPred.indirectLookups          383305                       # Number of indirect predictor lookups. (Count)
system.cpu.branchPred.indirectHits             380962                       # Number of indirect target hits. (Count)
system.cpu.branchPred.indirectMisses             2343                       # Number of indirect misses. (Count)
system.cpu.branchPred.indirectMispredicted            0                       # Number of mispredicted indirect branches. (Count)
system.cpu.branchPred.btb.lookups::NoBranch            0      0.00%      0.00% # Number of BTB lookups (Count)
system.cpu.branchPred.btb.lookups::Return      2733947     25.41%     25.41% # Number of BTB lookups (Count)
system.cpu.branchPred.btb.lookups::CallDirect      2702935     25.12%     50.53% # Number of BTB lookups (Count)
system.cpu.branchPred.btb.lookups::CallIndirect          713      0.01%     50.54% # Number of BTB lookups (Count)
system.cpu.branchPred.btb.lookups::DirectCond      4875296     45.31%     95.85% # Number of BTB lookups (Count)
system.cpu.branchPred.btb.lookups::DirectUncond        64031      0.60%     96.44% # Number of BTB lookups (Count)
system.cpu.branchPred.btb.lookups::IndirectCond            0      0.00%     96.44% # Number of BTB lookups (Count)
system.cpu.branchPred.btb.lookups::IndirectUncond       382592      3.56%    100.00% # Number of BTB lookups (Count)
system.cpu.branchPred.btb.lookups::total     10759514                       # Number of BTB lookups (Count)
system.cpu.branchPred.btb.misses::NoBranch            0      0.00%      0.00% # Number of BTB misses (Count)
system.cpu.branchPred.btb.misses::Return      2733888     57.39%     57.39% # Number of BTB misses (Count)
system.cpu.branchPred.btb.misses::CallDirect         1272      0.03%     57.42% # Number of BTB misses (Count)
system.cpu.branchPred.btb.misses::CallIndirect          566      0.01%     57.43% # Number of BTB misses (Count)
system.cpu.branchPred.btb.misses::DirectCond      1644385     34.52%     91.95% # Number of BTB misses (Count)
system.cpu.branchPred.btb.misses::DirectUncond          901      0.02%     91.97% # Number of BTB misses (Count)
system.cpu.branchPred.btb.misses::IndirectCond            0      0.00%     91.97% # Number of BTB misses (Count)
system.cpu.branchPred.btb.misses::IndirectUncond       382592      8.03%    100.00% # Number of BTB misses (Count)
system.cpu.branchPred.btb.misses::total       4763604                       # Number of BTB misses (Count)
system.cpu.branchPred.btb.updates::NoBranch            0      0.00%      0.00% # Number of BTB updates (Count)
system.cpu.branchPred.btb.updates::Return            0      0.00%      0.00% # Number of BTB updates (Count)
system.cpu.branchPred.btb.updates::CallDirect          896      4.56%      4.56% # Number of BTB updates (Count)
system.cpu.branchPred.btb.updates::CallIndirect            0      0.00%      4.56% # Number of BTB updates (Count)
system.cpu.branchPred.btb.updates::DirectCond        18063     92.03%     96.59% # Number of BTB updates (Count)
system.cpu.branchPred.btb.updates::DirectUncond          669      3.41%    100.00% # Number of BTB updates (Count)
system.cpu.branchPred.btb.updates::IndirectCond            0      0.00%    100.00% # Number of BTB updates (Count)
system.cpu.branchPred.btb.updates::IndirectUncond            0      0.00%    100.00% # Number of BTB updates (Count)
system.cpu.branchPred.btb.updates::total        19628                       # Number of BTB updates (Count)
system.cpu.branchPred.btb.mispredict::NoBranch            0      0.00%      0.00% # Number of BTB mispredictions. No target found or target wrong. (Count)
system.cpu.branchPred.btb.mispredict::Return            0      0.00%      0.00% # Number of BTB mispredictions. No target found or target wrong. (Count)
system.cpu.branchPred.btb.mispredict::CallDirect          896      4.56%      4.56% # Number of BTB mispredictions. No target found or target wrong. (Count)
system.cpu.branchPred.btb.mispredict::CallIndirect            0      0.00%      4.56% # Number of BTB mispredictions. No target found or target wrong. (Count)
system.cpu.branchPred.btb.mispredict::DirectCond        18063     92.03%     96.59% # Number of BTB mispredictions. No target found or target wrong. (Count)
system.cpu.branchPred.btb.mispredict::DirectUncond          669      3.41%    100.00% # Number of BTB mispredictions. No target found or target wrong. (Count)
system.cpu.branchPred.btb.mispredict::IndirectCond            0      0.00%    100.00% # Number of BTB mispredictions. No target found or target wrong. (Count)
system.cpu.branchPred.btb.mispredict::IndirectUncond            0      0.00%    100.00% # Number of BTB mispredictions. No target found or target wrong. (Count)
system.cpu.branchPred.btb.mispredict::total        19628                       # Number of BTB mispredictions. No target found or target wrong. (Count)
system.cpu.branchPred.btb.power_state.pwrStateResidencyTicks::UNDEFINED 1875209896090                       # Cumulative time (in ticks) in various power states (Tick)
system.cpu.branchPred.indirectBranchPred.lookups       383305                       # Number of lookups (Count)
system.cpu.branchPred.indirectBranchPred.hits       380962                       # Number of hits of a tag (Count)
system.cpu.branchPred.indirectBranchPred.misses         2343                       # Number of misses (Count)
system.cpu.branchPred.indirectBranchPred.targetRecords          538                       # Number of targets that where recorded/installed in the cache (Count)
system.cpu.branchPred.indirectBranchPred.indirectRecords       383843                       # Number of indirect branches/calls recorded in the indirect hist (Count)
system.cpu.branchPred.indirectBranchPred.speculativeOverflows            0                       # Number of times more than the allowed capacity for speculative branches/calls where in flight and destroy the path history (Count)
system.cpu.branchPred.ras.pushes              2745325                       # Number of times a PC was pushed onto the RAS (Count)
system.cpu.branchPred.ras.pops                2745321                       # Number of times a PC was poped from the RAS (Count)
system.cpu.branchPred.ras.squashes              53051                       # Number of times the stack operation was squashed due to wrong speculation. (Count)
system.cpu.branchPred.ras.used                2692270                       # Number of times the RAS is the provider (Count)
system.cpu.branchPred.ras.correct             2692259                       # Number of times the RAS is the provider and the prediction is correct (Count)
system.cpu.branchPred.ras.incorrect                11                       # Number of times the RAS is the provider and the prediction is wrong (Count)
system.cpu.commit.commitSquashedInsts          812692                       # The number of squashed insts skipped by commit (Count)
system.cpu.commit.commitNonSpecStalls             753                       # The number of times commit has been forced to stall to communicate backwards (Count)
system.cpu.commit.branchMispredicts             25650                       # The number of times a branch was mispredicted (Count)
system.cpu.commit.numCommittedDist::samples   5987904613                       # Number of insts commited each cycle (Count)
system.cpu.commit.numCommittedDist::mean     0.020455                       # Number of insts commited each cycle (Count)
system.cpu.commit.numCommittedDist::stdev     0.339754                       # Number of insts commited each cycle (Count)
system.cpu.commit.numCommittedDist::underflows            0      0.00%      0.00% # Number of insts commited each cycle (Count)
system.cpu.commit.numCommittedDist::0      5954119094     99.44%     99.44% # Number of insts commited each cycle (Count)
system.cpu.commit.numCommittedDist::1        10799541      0.18%     99.62% # Number of insts commited each cycle (Count)
system.cpu.commit.numCommittedDist::2         5332217      0.09%     99.71% # Number of insts commited each cycle (Count)
system.cpu.commit.numCommittedDist::3         4906310      0.08%     99.79% # Number of insts commited each cycle (Count)
system.cpu.commit.numCommittedDist::4         2179647      0.04%     99.82% # Number of insts commited each cycle (Count)
system.cpu.commit.numCommittedDist::5         1406254      0.02%     99.85% # Number of insts commited each cycle (Count)
system.cpu.commit.numCommittedDist::6         1091294      0.02%     99.87% # Number of insts commited each cycle (Count)
system.cpu.commit.numCommittedDist::7          559640      0.01%     99.87% # Number of insts commited each cycle (Count)
system.cpu.commit.numCommittedDist::8         7510616      0.13%    100.00% # Number of insts commited each cycle (Count)
system.cpu.commit.numCommittedDist::overflows            0      0.00%    100.00% # Number of insts commited each cycle (Count)
system.cpu.commit.numCommittedDist::min_value            0                       # Number of insts commited each cycle (Count)
system.cpu.commit.numCommittedDist::max_value            8                       # Number of insts commited each cycle (Count)
system.cpu.commit.numCommittedDist::total   5987904613                       # Number of insts commited each cycle (Count)
system.cpu.commit.amos                              0                       # Number of atomic instructions committed (Count)
system.cpu.commit.membars                         346                       # Number of memory barriers committed (Count)
system.cpu.commit.functionCalls               2692274                       # Number of function calls committed. (Count)
system.cpu.commit.committedInstType_0::No_OpClass         4219      0.00%      0.00% # Class of committed instruction (Count)
system.cpu.commit.committedInstType_0::IntAlu     79700068     65.07%     65.07% # Class of committed instruction (Count)
system.cpu.commit.committedInstType_0::IntMult       603842      0.49%     65.57% # Class of committed instruction (Count)
system.cpu.commit.committedInstType_0::IntDiv         3761      0.00%     65.57% # Class of committed instruction (Count)
system.cpu.commit.committedInstType_0::FloatAdd      2720103      2.22%     67.79% # Class of committed instruction (Count)
system.cpu.commit.committedInstType_0::FloatCmp            0      0.00%     67.79% # Class of committed instruction (Count)
system.cpu.commit.committedInstType_0::FloatCvt          416      0.00%     67.79% # Class of committed instruction (Count)
system.cpu.commit.committedInstType_0::FloatMult            0      0.00%     67.79% # Class of committed instruction (Count)
system.cpu.commit.committedInstType_0::FloatMultAcc            0      0.00%     67.79% # Class of committed instruction (Count)
system.cpu.commit.committedInstType_0::FloatDiv            0      0.00%     67.79% # Class of committed instruction (Count)
system.cpu.commit.committedInstType_0::FloatMisc            0      0.00%     67.79% # Class of committed instruction (Count)
system.cpu.commit.committedInstType_0::FloatSqrt            0      0.00%     67.79% # Class of committed instruction (Count)
system.cpu.commit.committedInstType_0::SimdAdd           16      0.00%     67.79% # Class of committed instruction (Count)
system.cpu.commit.committedInstType_0::SimdAddAcc            0      0.00%     67.79% # Class of committed instruction (Count)
system.cpu.commit.committedInstType_0::SimdAlu      1208478      0.99%     68.78% # Class of committed instruction (Count)
system.cpu.commit.committedInstType_0::SimdCmp            0      0.00%     68.78% # Class of committed instruction (Count)
system.cpu.commit.committedInstType_0::SimdCvt          500      0.00%     68.78% # Class of committed instruction (Count)
system.cpu.commit.committedInstType_0::SimdMisc       906858      0.74%     69.52% # Class of committed instruction (Count)
system.cpu.commit.committedInstType_0::SimdMult            0      0.00%     69.52% # Class of committed instruction (Count)
system.cpu.commit.committedInstType_0::SimdMultAcc            0      0.00%     69.52% # Class of committed instruction (Count)
system.cpu.commit.committedInstType_0::SimdMatMultAcc            0      0.00%     69.52% # Class of committed instruction (Count)
system.cpu.commit.committedInstType_0::SimdShift            0      0.00%     69.52% # Class of committed instruction (Count)
system.cpu.commit.committedInstType_0::SimdShiftAcc            0      0.00%     69.52% # Class of committed instruction (Count)
system.cpu.commit.committedInstType_0::SimdDiv            0      0.00%     69.52% # Class of committed instruction (Count)
system.cpu.commit.committedInstType_0::SimdSqrt            0      0.00%     69.52% # Class of committed instruction (Count)
system.cpu.commit.committedInstType_0::SimdFloatAdd       603648      0.49%     70.01% # Class of committed instruction (Count)
system.cpu.commit.committedInstType_0::SimdFloatAlu            0      0.00%     70.01% # Class of committed instruction (Count)
system.cpu.commit.committedInstType_0::SimdFloatCmp            0      0.00%     70.01% # Class of committed instruction (Count)
system.cpu.commit.committedInstType_0::SimdFloatCvt      1208448      0.99%     71.00% # Class of committed instruction (Count)
system.cpu.commit.committedInstType_0::SimdFloatDiv       301824      0.25%     71.24% # Class of committed instruction (Count)
system.cpu.commit.committedInstType_0::SimdFloatMisc            0      0.00%     71.24% # Class of committed instruction (Count)
system.cpu.commit.committedInstType_0::SimdFloatMult       302208      0.25%     71.49% # Class of committed instruction (Count)
system.cpu.commit.committedInstType_0::SimdFloatMultAcc            0      0.00%     71.49% # Class of committed instruction (Count)
system.cpu.commit.committedInstType_0::SimdFloatMatMultAcc            0      0.00%     71.49% # Class of committed instruction (Count)
system.cpu.commit.committedInstType_0::SimdFloatSqrt            0      0.00%     71.49% # Class of committed instruction (Count)
system.cpu.commit.committedInstType_0::SimdReduceAdd            0      0.00%     71.49% # Class of committed instruction (Count)
system.cpu.commit.committedInstType_0::SimdReduceAlu            0      0.00%     71.49% # Class of committed instruction (Count)
system.cpu.commit.committedInstType_0::SimdReduceCmp            0      0.00%     71.49% # Class of committed instruction (Count)
system.cpu.commit.committedInstType_0::SimdFloatReduceAdd            0      0.00%     71.49% # Class of committed instruction (Count)
system.cpu.commit.committedInstType_0::SimdFloatReduceCmp            0      0.00%     71.49% # Class of committed instruction (Count)
system.cpu.commit.committedInstType_0::SimdAes            0      0.00%     71.49% # Class of committed instruction (Count)
system.cpu.commit.committedInstType_0::SimdAesMix            0      0.00%     71.49% # Class of committed instruction (Count)
system.cpu.commit.committedInstType_0::SimdSha1Hash            0      0.00%     71.49% # Class of committed instruction (Count)
system.cpu.commit.committedInstType_0::SimdSha1Hash2            0      0.00%     71.49% # Class of committed instruction (Count)
system.cpu.commit.committedInstType_0::SimdSha256Hash            0      0.00%     71.49% # Class of committed instruction (Count)
system.cpu.commit.committedInstType_0::SimdSha256Hash2            0      0.00%     71.49% # Class of committed instruction (Count)
system.cpu.commit.committedInstType_0::SimdShaSigma2            0      0.00%     71.49% # Class of committed instruction (Count)
system.cpu.commit.committedInstType_0::SimdShaSigma3            0      0.00%     71.49% # Class of committed instruction (Count)
system.cpu.commit.committedInstType_0::SimdPredAlu            0      0.00%     71.49% # Class of committed instruction (Count)
system.cpu.commit.committedInstType_0::Matrix            0      0.00%     71.49% # Class of committed instruction (Count)
system.cpu.commit.committedInstType_0::MatrixMov            0      0.00%     71.49% # Class of committed instruction (Count)
system.cpu.commit.committedInstType_0::MatrixOP            0      0.00%     71.49% # Class of committed instruction (Count)
system.cpu.commit.committedInstType_0::MemRead     19539421     15.95%     87.44% # Class of committed instruction (Count)
system.cpu.commit.committedInstType_0::MemWrite     11145330      9.10%     96.54% # Class of committed instruction (Count)
system.cpu.commit.committedInstType_0::FloatMemRead      3023357      2.47%     99.01% # Class of committed instruction (Count)
system.cpu.commit.committedInstType_0::FloatMemWrite      1210438      0.99%    100.00% # Class of committed instruction (Count)
system.cpu.commit.committedInstType_0::IprAccess            0      0.00%    100.00% # Class of committed instruction (Count)
system.cpu.commit.committedInstType_0::InstPrefetch            0      0.00%    100.00% # Class of committed instruction (Count)
system.cpu.commit.committedInstType_0::SimdUnitStrideLoad            0      0.00%    100.00% # Class of committed instruction (Count)
system.cpu.commit.committedInstType_0::SimdUnitStrideStore            0      0.00%    100.00% # Class of committed instruction (Count)
system.cpu.commit.committedInstType_0::SimdUnitStrideMaskLoad            0      0.00%    100.00% # Class of committed instruction (Count)
system.cpu.commit.committedInstType_0::SimdUnitStrideMaskStore            0      0.00%    100.00% # Class of committed instruction (Count)
system.cpu.commit.committedInstType_0::SimdStridedLoad            0      0.00%    100.00% # Class of committed instruction (Count)
system.cpu.commit.committedInstType_0::SimdStridedStore            0      0.00%    100.00% # Class of committed instruction (Count)
system.cpu.commit.committedInstType_0::SimdIndexedLoad            0      0.00%    100.00% # Class of committed instruction (Count)
system.cpu.commit.committedInstType_0::SimdIndexedStore            0      0.00%    100.00% # Class of committed instruction (Count)
system.cpu.commit.committedInstType_0::SimdWholeRegisterLoad            0      0.00%    100.00% # Class of committed instruction (Count)
system.cpu.commit.committedInstType_0::SimdWholeRegisterStore            0      0.00%    100.00% # Class of committed instruction (Count)
system.cpu.commit.committedInstType_0::SimdUnitStrideFaultOnlyFirstLoad            0      0.00%    100.00% # Class of committed instruction (Count)
system.cpu.commit.committedInstType_0::SimdUnitStrideSegmentedLoad            0      0.00%    100.00% # Class of committed instruction (Count)
system.cpu.commit.committedInstType_0::SimdUnitStrideSegmentedStore            0      0.00%    100.00% # Class of committed instruction (Count)
system.cpu.commit.committedInstType_0::SimdExt            0      0.00%    100.00% # Class of committed instruction (Count)
system.cpu.commit.committedInstType_0::SimdFloatExt            0      0.00%    100.00% # Class of committed instruction (Count)
system.cpu.commit.committedInstType_0::SimdConfig            0      0.00%    100.00% # Class of committed instruction (Count)
system.cpu.commit.committedInstType_0::total    122482935                       # Class of committed instruction (Count)
system.cpu.commit.commitEligibleSamples       7510616                       # number cycles where commit BW limit reached (Cycle)
system.cpu.commitStats0.numInsts             67533314                       # Number of instructions committed (thread level) (Count)
system.cpu.commitStats0.numOps              122482935                       # Number of ops (including micro ops) committed (thread level) (Count)
system.cpu.commitStats0.numInstsNotNOP       67533314                       # Number of instructions committed excluding NOPs or prefetches (Count)
system.cpu.commitStats0.numOpsNotNOP        122482935                       # Number of Ops (including micro ops) Simulated (Count)
system.cpu.commitStats0.cpi                 88.713045                       # CPI: cycles per instruction (thread level) ((Cycle/Count))
system.cpu.commitStats0.ipc                  0.011272                       # IPC: instructions per cycle (thread level) ((Count/Cycle))
system.cpu.commitStats0.numMemRefs           34918546                       # Number of memory references committed (Count)
system.cpu.commitStats0.numFpInsts           11486403                       # Number of float instructions (Count)
system.cpu.commitStats0.numIntInsts         116105583                       # Number of integer instructions (Count)
system.cpu.commitStats0.numLoadInsts         22562778                       # Number of load instructions (Count)
system.cpu.commitStats0.numStoreInsts        12355768                       # Number of store instructions (Count)
system.cpu.commitStats0.numVecInsts                 0                       # Number of vector instructions (Count)
system.cpu.commitStats0.committedInstType::No_OpClass         4219      0.00%      0.00% # Class of committed instruction. (Count)
system.cpu.commitStats0.committedInstType::IntAlu     79700068     65.07%     65.07% # Class of committed instruction. (Count)
system.cpu.commitStats0.committedInstType::IntMult       603842      0.49%     65.57% # Class of committed instruction. (Count)
system.cpu.commitStats0.committedInstType::IntDiv         3761      0.00%     65.57% # Class of committed instruction. (Count)
system.cpu.commitStats0.committedInstType::FloatAdd      2720103      2.22%     67.79% # Class of committed instruction. (Count)
system.cpu.commitStats0.committedInstType::FloatCmp            0      0.00%     67.79% # Class of committed instruction. (Count)
system.cpu.commitStats0.committedInstType::FloatCvt          416      0.00%     67.79% # Class of committed instruction. (Count)
system.cpu.commitStats0.committedInstType::FloatMult            0      0.00%     67.79% # Class of committed instruction. (Count)
system.cpu.commitStats0.committedInstType::FloatMultAcc            0      0.00%     67.79% # Class of committed instruction. (Count)
system.cpu.commitStats0.committedInstType::FloatDiv            0      0.00%     67.79% # Class of committed instruction. (Count)
system.cpu.commitStats0.committedInstType::FloatMisc            0      0.00%     67.79% # Class of committed instruction. (Count)
system.cpu.commitStats0.committedInstType::FloatSqrt            0      0.00%     67.79% # Class of committed instruction. (Count)
system.cpu.commitStats0.committedInstType::SimdAdd           16      0.00%     67.79% # Class of committed instruction. (Count)
system.cpu.commitStats0.committedInstType::SimdAddAcc            0      0.00%     67.79% # Class of committed instruction. (Count)
system.cpu.commitStats0.committedInstType::SimdAlu      1208478      0.99%     68.78% # Class of committed instruction. (Count)
system.cpu.commitStats0.committedInstType::SimdCmp            0      0.00%     68.78% # Class of committed instruction. (Count)
system.cpu.commitStats0.committedInstType::SimdCvt          500      0.00%     68.78% # Class of committed instruction. (Count)
system.cpu.commitStats0.committedInstType::SimdMisc       906858      0.74%     69.52% # Class of committed instruction. (Count)
system.cpu.commitStats0.committedInstType::SimdMult            0      0.00%     69.52% # Class of committed instruction. (Count)
system.cpu.commitStats0.committedInstType::SimdMultAcc            0      0.00%     69.52% # Class of committed instruction. (Count)
system.cpu.commitStats0.committedInstType::SimdMatMultAcc            0      0.00%     69.52% # Class of committed instruction. (Count)
system.cpu.commitStats0.committedInstType::SimdShift            0      0.00%     69.52% # Class of committed instruction. (Count)
system.cpu.commitStats0.committedInstType::SimdShiftAcc            0      0.00%     69.52% # Class of committed instruction. (Count)
system.cpu.commitStats0.committedInstType::SimdDiv            0      0.00%     69.52% # Class of committed instruction. (Count)
system.cpu.commitStats0.committedInstType::SimdSqrt            0      0.00%     69.52% # Class of committed instruction. (Count)
system.cpu.commitStats0.committedInstType::SimdFloatAdd       603648      0.49%     70.01% # Class of committed instruction. (Count)
system.cpu.commitStats0.committedInstType::SimdFloatAlu            0      0.00%     70.01% # Class of committed instruction. (Count)
system.cpu.commitStats0.committedInstType::SimdFloatCmp            0      0.00%     70.01% # Class of committed instruction. (Count)
system.cpu.commitStats0.committedInstType::SimdFloatCvt      1208448      0.99%     71.00% # Class of committed instruction. (Count)
system.cpu.commitStats0.committedInstType::SimdFloatDiv       301824      0.25%     71.24% # Class of committed instruction. (Count)
system.cpu.commitStats0.committedInstType::SimdFloatMisc            0      0.00%     71.24% # Class of committed instruction. (Count)
system.cpu.commitStats0.committedInstType::SimdFloatMult       302208      0.25%     71.49% # Class of committed instruction. (Count)
system.cpu.commitStats0.committedInstType::SimdFloatMultAcc            0      0.00%     71.49% # Class of committed instruction. (Count)
system.cpu.commitStats0.committedInstType::SimdFloatMatMultAcc            0      0.00%     71.49% # Class of committed instruction. (Count)
system.cpu.commitStats0.committedInstType::SimdFloatSqrt            0      0.00%     71.49% # Class of committed instruction. (Count)
system.cpu.commitStats0.committedInstType::SimdReduceAdd            0      0.00%     71.49% # Class of committed instruction. (Count)
system.cpu.commitStats0.committedInstType::SimdReduceAlu            0      0.00%     71.49% # Class of committed instruction. (Count)
system.cpu.commitStats0.committedInstType::SimdReduceCmp            0      0.00%     71.49% # Class of committed instruction. (Count)
system.cpu.commitStats0.committedInstType::SimdFloatReduceAdd            0      0.00%     71.49% # Class of committed instruction. (Count)
system.cpu.commitStats0.committedInstType::SimdFloatReduceCmp            0      0.00%     71.49% # Class of committed instruction. (Count)
system.cpu.commitStats0.committedInstType::SimdAes            0      0.00%     71.49% # Class of committed instruction. (Count)
system.cpu.commitStats0.committedInstType::SimdAesMix            0      0.00%     71.49% # Class of committed instruction. (Count)
system.cpu.commitStats0.committedInstType::SimdSha1Hash            0      0.00%     71.49% # Class of committed instruction. (Count)
system.cpu.commitStats0.committedInstType::SimdSha1Hash2            0      0.00%     71.49% # Class of committed instruction. (Count)
system.cpu.commitStats0.committedInstType::SimdSha256Hash            0      0.00%     71.49% # Class of committed instruction. (Count)
system.cpu.commitStats0.committedInstType::SimdSha256Hash2            0      0.00%     71.49% # Class of committed instruction. (Count)
system.cpu.commitStats0.committedInstType::SimdShaSigma2            0      0.00%     71.49% # Class of committed instruction. (Count)
system.cpu.commitStats0.committedInstType::SimdShaSigma3            0      0.00%     71.49% # Class of committed instruction. (Count)
system.cpu.commitStats0.committedInstType::SimdPredAlu            0      0.00%     71.49% # Class of committed instruction. (Count)
system.cpu.commitStats0.committedInstType::Matrix            0      0.00%     71.49% # Class of committed instruction. (Count)
system.cpu.commitStats0.committedInstType::MatrixMov            0      0.00%     71.49% # Class of committed instruction. (Count)
system.cpu.commitStats0.committedInstType::MatrixOP            0      0.00%     71.49% # Class of committed instruction. (Count)
system.cpu.commitStats0.committedInstType::MemRead     19539421     15.95%     87.44% # Class of committed instruction. (Count)
system.cpu.commitStats0.committedInstType::MemWrite     11145330      9.10%     96.54% # Class of committed instruction. (Count)
system.cpu.commitStats0.committedInstType::FloatMemRead      3023357      2.47%     99.01% # Class of committed instruction. (Count)
system.cpu.commitStats0.committedInstType::FloatMemWrite      1210438      0.99%    100.00% # Class of committed instruction. (Count)
system.cpu.commitStats0.committedInstType::IprAccess            0      0.00%    100.00% # Class of committed instruction. (Count)
system.cpu.commitStats0.committedInstType::InstPrefetch            0      0.00%    100.00% # Class of committed instruction. (Count)
system.cpu.commitStats0.committedInstType::SimdUnitStrideLoad            0      0.00%    100.00% # Class of committed instruction. (Count)
system.cpu.commitStats0.committedInstType::SimdUnitStrideStore            0      0.00%    100.00% # Class of committed instruction. (Count)
system.cpu.commitStats0.committedInstType::SimdUnitStrideMaskLoad            0      0.00%    100.00% # Class of committed instruction. (Count)
system.cpu.commitStats0.committedInstType::SimdUnitStrideMaskStore            0      0.00%    100.00% # Class of committed instruction. (Count)
system.cpu.commitStats0.committedInstType::SimdStridedLoad            0      0.00%    100.00% # Class of committed instruction. (Count)
system.cpu.commitStats0.committedInstType::SimdStridedStore            0      0.00%    100.00% # Class of committed instruction. (Count)
system.cpu.commitStats0.committedInstType::SimdIndexedLoad            0      0.00%    100.00% # Class of committed instruction. (Count)
system.cpu.commitStats0.committedInstType::SimdIndexedStore            0      0.00%    100.00% # Class of committed instruction. (Count)
system.cpu.commitStats0.committedInstType::SimdWholeRegisterLoad            0      0.00%    100.00% # Class of committed instruction. (Count)
system.cpu.commitStats0.committedInstType::SimdWholeRegisterStore            0      0.00%    100.00% # Class of committed instruction. (Count)
system.cpu.commitStats0.committedInstType::SimdUnitStrideFaultOnlyFirstLoad            0      0.00%    100.00% # Class of committed instruction. (Count)
system.cpu.commitStats0.committedInstType::SimdUnitStrideSegmentedLoad            0      0.00%    100.00% # Class of committed instruction. (Count)
system.cpu.commitStats0.committedInstType::SimdUnitStrideSegmentedStore            0      0.00%    100.00% # Class of committed instruction. (Count)
system.cpu.commitStats0.committedInstType::SimdExt            0      0.00%    100.00% # Class of committed instruction. (Count)
system.cpu.commitStats0.committedInstType::SimdFloatExt            0      0.00%    100.00% # Class of committed instruction. (Count)
system.cpu.commitStats0.committedInstType::SimdConfig            0      0.00%    100.00% # Class of committed instruction. (Count)
system.cpu.commitStats0.committedInstType::total    122482935                       # Class of committed instruction. (Count)
system.cpu.commitStats0.committedControl::IsControl     10595795                       # Class of control type instructions committed (Count)
system.cpu.commitStats0.committedControl::IsDirectControl      7523324                       # Class of control type instructions committed (Count)
system.cpu.commitStats0.committedControl::IsIndirectControl      3072471                       # Class of control type instructions committed (Count)
system.cpu.commitStats0.committedControl::IsCondControl      4776575                       # Class of control type instructions committed (Count)
system.cpu.commitStats0.committedControl::IsUncondControl      5819220                       # Class of control type instructions committed (Count)
system.cpu.commitStats0.committedControl::IsCall      2692274                       # Class of control type instructions committed (Count)
system.cpu.commitStats0.committedControl::IsReturn      2692270                       # Class of control type instructions committed (Count)
system.cpu.dcache.demandHits::cpu.data       21380857                       # number of demand (read+write) hits (Count)
system.cpu.dcache.demandHits::total          21380857                       # number of demand (read+write) hits (Count)
system.cpu.dcache.overallHits::cpu.data      21380857                       # number of overall hits (Count)
system.cpu.dcache.overallHits::total         21380857                       # number of overall hits (Count)
system.cpu.dcache.demandMisses::cpu.data       157775                       # number of demand (read+write) misses (Count)
system.cpu.dcache.demandMisses::total          157775                       # number of demand (read+write) misses (Count)
system.cpu.dcache.overallMisses::cpu.data       157775                       # number of overall misses (Count)
system.cpu.dcache.overallMisses::total         157775                       # number of overall misses (Count)
system.cpu.dcache.demandMissLatency::cpu.data 119594436028                       # number of demand (read+write) miss ticks (Tick)
system.cpu.dcache.demandMissLatency::total 119594436028                       # number of demand (read+write) miss ticks (Tick)
system.cpu.dcache.overallMissLatency::cpu.data 119594436028                       # number of overall miss ticks (Tick)
system.cpu.dcache.overallMissLatency::total 119594436028                       # number of overall miss ticks (Tick)
system.cpu.dcache.demandAccesses::cpu.data     21538632                       # number of demand (read+write) accesses (Count)
system.cpu.dcache.demandAccesses::total      21538632                       # number of demand (read+write) accesses (Count)
system.cpu.dcache.overallAccesses::cpu.data     21538632                       # number of overall (read+write) accesses (Count)
system.cpu.dcache.overallAccesses::total     21538632                       # number of overall (read+write) accesses (Count)
system.cpu.dcache.demandMissRate::cpu.data     0.007325                       # miss rate for demand accesses (Ratio)
system.cpu.dcache.demandMissRate::total      0.007325                       # miss rate for demand accesses (Ratio)
system.cpu.dcache.overallMissRate::cpu.data     0.007325                       # miss rate for overall accesses (Ratio)
system.cpu.dcache.overallMissRate::total     0.007325                       # miss rate for overall accesses (Ratio)
system.cpu.dcache.demandAvgMissLatency::cpu.data 758006.249583                       # average overall miss latency in ticks ((Tick/Count))
system.cpu.dcache.demandAvgMissLatency::total 758006.249583                       # average overall miss latency in ticks ((Tick/Count))
system.cpu.dcache.overallAvgMissLatency::cpu.data 758006.249583                       # average overall miss latency ((Tick/Count))
system.cpu.dcache.overallAvgMissLatency::total 758006.249583                       # average overall miss latency ((Tick/Count))
system.cpu.dcache.blockedCycles::no_mshrs       878592                       # number of cycles access was blocked (Cycle)
system.cpu.dcache.blockedCycles::no_targets        37911                       # number of cycles access was blocked (Cycle)
system.cpu.dcache.blockedCauses::no_mshrs         1019                       # number of times access was blocked (Count)
system.cpu.dcache.blockedCauses::no_targets           42                       # number of times access was blocked (Count)
system.cpu.dcache.avgBlocked::no_mshrs     862.210010                       # average number of cycles each access was blocked ((Cycle/Count))
system.cpu.dcache.avgBlocked::no_targets   902.642857                       # average number of cycles each access was blocked ((Cycle/Count))
system.cpu.dcache.writebacks::writebacks        83295                       # number of writebacks (Count)
system.cpu.dcache.writebacks::total             83295                       # number of writebacks (Count)
system.cpu.dcache.demandMshrHits::cpu.data        30334                       # number of demand (read+write) MSHR hits (Count)
system.cpu.dcache.demandMshrHits::total         30334                       # number of demand (read+write) MSHR hits (Count)
system.cpu.dcache.overallMshrHits::cpu.data        30334                       # number of overall MSHR hits (Count)
[...]
system.l2.ReadSharedReq.mshrMissRate::cpu.data     0.862043                       # mshr miss rate for ReadSharedReq accesses (Ratio)
system.l2.ReadSharedReq.mshrMissRate::total     0.862043                       # mshr miss rate for ReadSharedReq accesses (Ratio)
system.l2.ReadSharedReq.avgMshrMissLatency::cpu.data 1654694.363702                       # average ReadSharedReq mshr miss latency ((Tick/Count))
system.l2.ReadSharedReq.avgMshrMissLatency::total 1654694.363702                       # average ReadSharedReq mshr miss latency ((Tick/Count))
system.l2.UpgradeReq.hits::cpu.data                 3                       # number of UpgradeReq hits (Count)
system.l2.UpgradeReq.hits::total                    3                       # number of UpgradeReq hits (Count)
system.l2.UpgradeReq.accesses::cpu.data             3                       # number of UpgradeReq accesses(hits+misses) (Count)
system.l2.UpgradeReq.accesses::total                3                       # number of UpgradeReq accesses(hits+misses) (Count)
system.l2.WriteReq.mshrUncacheable::cpu.data       376751                       # number of WriteReq MSHR uncacheable (Count)
system.l2.WriteReq.mshrUncacheable::total       376751                       # number of WriteReq MSHR uncacheable (Count)
system.l2.WritebackClean.hits::writebacks         2576                       # number of WritebackClean hits (Count)
system.l2.WritebackClean.hits::total             2576                       # number of WritebackClean hits (Count)
system.l2.WritebackClean.accesses::writebacks         2576                       # number of WritebackClean accesses(hits+misses) (Count)
system.l2.WritebackClean.accesses::total         2576                       # number of WritebackClean accesses(hits+misses) (Count)
system.l2.WritebackDirty.hits::writebacks        83295                       # number of WritebackDirty hits (Count)
system.l2.WritebackDirty.hits::total            83295                       # number of WritebackDirty hits (Count)
system.l2.WritebackDirty.accesses::writebacks        83295                       # number of WritebackDirty accesses(hits+misses) (Count)
system.l2.WritebackDirty.accesses::total        83295                       # number of WritebackDirty accesses(hits+misses) (Count)
system.l2.power_state.pwrStateResidencyTicks::UNDEFINED 1875209896090                       # Cumulative time (in ticks) in various power states (Tick)
system.l2.tags.tagsInUse                 32488.488333                       # Average ticks per tags in use ((Tick/Count))
system.l2.tags.totalRefs                       260027                       # Total number of references to valid blocks. (Count)
system.l2.tags.sampledRefs                     122928                       # Sample count of references to valid blocks. (Count)
system.l2.tags.avgRefs                       2.115279                       # Average number of references to valid blocks. ((Count/Count))
system.l2.tags.warmupTick                      430000                       # The tick when the warmup percentage was hit. (Tick)
system.l2.tags.occupancies::writebacks      38.484885                       # Average occupied blocks per tick, per requestor ((Count/Tick))
system.l2.tags.occupancies::cpu.inst        60.996989                       # Average occupied blocks per tick, per requestor ((Count/Tick))
system.l2.tags.occupancies::cpu.data     32389.006458                       # Average occupied blocks per tick, per requestor ((Count/Tick))
system.l2.tags.avgOccs::writebacks           0.001174                       # Average percentage of cache occupancy ((Ratio/Tick))
system.l2.tags.avgOccs::cpu.inst             0.001861                       # Average percentage of cache occupancy ((Ratio/Tick))
system.l2.tags.avgOccs::cpu.data             0.988434                       # Average percentage of cache occupancy ((Ratio/Tick))
system.l2.tags.avgOccs::total                0.991470                       # Average percentage of cache occupancy ((Ratio/Tick))
system.l2.tags.occupanciesTaskId::1024          32768                       # Occupied blocks per task id (Count)
system.l2.tags.ageTaskId_1024::0                   44                       # Occupied blocks per task id, per block age (Count)
system.l2.tags.ageTaskId_1024::1                  271                       # Occupied blocks per task id, per block age (Count)
system.l2.tags.ageTaskId_1024::2                  524                       # Occupied blocks per task id, per block age (Count)
system.l2.tags.ageTaskId_1024::4                31929                       # Occupied blocks per task id, per block age (Count)
system.l2.tags.ratioOccsTaskId::1024                1                       # Ratio of occupied blocks and all blocks, per task id (Ratio)
system.l2.tags.tagAccesses                    2203184                       # Number of tag accesses (Count)
system.l2.tags.dataAccesses                   2203184                       # Number of data accesses (Count)
system.l2.tags.power_state.pwrStateResidencyTicks::UNDEFINED 1875209896090                       # Cumulative time (in ticks) in various power states (Tick)
system.mem_ctrls.bytesRead::cpu.inst           144640                       # Number of bytes read from this memory (Byte)
system.mem_ctrls.bytesRead::cpu.data          8005301                       # Number of bytes read from this memory (Byte)
system.mem_ctrls.bytesRead::total             8149941                       # Number of bytes read from this memory (Byte)
system.mem_ctrls.bytesInstRead::cpu.inst       144640                       # Number of instructions bytes read from this memory (Byte)
system.mem_ctrls.bytesInstRead::total          144640                       # Number of instructions bytes read from this memory (Byte)
system.mem_ctrls.bytesWritten::writebacks      4976192                       # Number of bytes written to this memory (Byte)
system.mem_ctrls.bytesWritten::cpu.data        382386                       # Number of bytes written to this memory (Byte)
system.mem_ctrls.bytesWritten::total          5358578                       # Number of bytes written to this memory (Byte)
system.mem_ctrls.numReads::cpu.inst              2260                       # Number of read requests responded to by this memory (Count)
system.mem_ctrls.numReads::cpu.data            422187                       # Number of read requests responded to by this memory (Count)
system.mem_ctrls.numReads::total               424447                       # Number of read requests responded to by this memory (Count)
system.mem_ctrls.numWrites::writebacks          77753                       # Number of write requests responded to by this memory (Count)
system.mem_ctrls.numWrites::cpu.data           376751                       # Number of write requests responded to by this memory (Count)
system.mem_ctrls.numWrites::total              454504                       # Number of write requests responded to by this memory (Count)
system.mem_ctrls.bwRead::cpu.inst               77133                       # Total read bandwidth from this memory ((Byte/Second))
system.mem_ctrls.bwRead::cpu.data             4269016                       # Total read bandwidth from this memory ((Byte/Second))
system.mem_ctrls.bwRead::total                4346149                       # Total read bandwidth from this memory ((Byte/Second))
system.mem_ctrls.bwInstRead::cpu.inst           77133                       # Instruction read bandwidth from this memory ((Byte/Second))
system.mem_ctrls.bwInstRead::total              77133                       # Instruction read bandwidth from this memory ((Byte/Second))
system.mem_ctrls.bwWrite::writebacks          2653672                       # Write bandwidth from this memory ((Byte/Second))
system.mem_ctrls.bwWrite::cpu.data             203916                       # Write bandwidth from this memory ((Byte/Second))
system.mem_ctrls.bwWrite::total               2857588                       # Write bandwidth from this memory ((Byte/Second))
system.mem_ctrls.bwTotal::writebacks          2653672                       # Total bandwidth to/from this memory ((Byte/Second))
system.mem_ctrls.bwTotal::cpu.inst              77133                       # Total bandwidth to/from this memory ((Byte/Second))
system.mem_ctrls.bwTotal::cpu.data            4472932                       # Total bandwidth to/from this memory ((Byte/Second))
system.mem_ctrls.bwTotal::total               7203737                       # Total bandwidth to/from this memory ((Byte/Second))
system.mem_ctrls.power_state.pwrStateResidencyTicks::UNDEFINED 1875209896090                       # Cumulative time (in ticks) in various power states (Tick)
system.membus.transDist::ReadReq               301867                       # Transaction distribution (Count)
system.membus.transDist::ReadResp              346824                       # Transaction distribution (Count)
system.membus.transDist::WriteReq              376751                       # Transaction distribution (Count)
system.membus.transDist::WriteResp             376751                       # Transaction distribution (Count)
system.membus.transDist::WritebackDirty         77753                       # Transaction distribution (Count)
system.membus.transDist::CleanEvict             11781                       # Transaction distribution (Count)
system.membus.transDist::ReadExReq              77623                       # Transaction distribution (Count)
system.membus.transDist::ReadExResp             77623                       # Transaction distribution (Count)
system.membus.transDist::ReadSharedReq          44957                       # Transaction distribution (Count)
system.membus.pktCount_system.l2.mem_side_port::system.mem_ctrls.port      1691930                       # Packet count per connected requestor and responder (Count)
system.membus.pktCount_system.l2.mem_side_port::total      1691930                       # Packet count per connected requestor and responder (Count)
system.membus.pktCount::total                 1691930                       # Packet count per connected requestor and responder (Count)
system.membus.pktSize_system.l2.mem_side_port::system.mem_ctrls.port     13508519                       # Cumulative packet size per connected requestor and responder (Byte)
system.membus.pktSize_system.l2.mem_side_port::total     13508519                       # Cumulative packet size per connected requestor and responder (Byte)
system.membus.pktSize::total                 13508519                       # Cumulative packet size per connected requestor and responder (Byte)
system.membus.snoops                                0                       # Total snoops (Count)
system.membus.snoopTraffic                          0                       # Total snoop traffic (Byte)
system.membus.snoopFanout::samples             917310                       # Request fanout histogram (Count)
system.membus.snoopFanout::mean                     0                       # Request fanout histogram (Count)
system.membus.snoopFanout::stdev                    0                       # Request fanout histogram (Count)
system.membus.snoopFanout::underflows               0      0.00%      0.00% # Request fanout histogram (Count)
system.membus.snoopFanout::0                   917310    100.00%    100.00% # Request fanout histogram (Count)
system.membus.snoopFanout::1                        0      0.00%    100.00% # Request fanout histogram (Count)
system.membus.snoopFanout::overflows                0      0.00%    100.00% # Request fanout histogram (Count)
system.membus.snoopFanout::min_value                0                       # Request fanout histogram (Count)
system.membus.snoopFanout::max_value                0                       # Request fanout histogram (Count)
system.membus.snoopFanout::total               917310                       # Request fanout histogram (Count)
system.membus.power_state.pwrStateResidencyTicks::UNDEFINED 1875209896090                       # Cumulative time (in ticks) in various power states (Tick)
system.membus.reqLayer2.occupancy          5540841897                       # Layer occupancy (ticks) (Tick)
system.membus.reqLayer2.utilization               0.0                       # Layer utilization (Ratio)
system.membus.respLayer1.occupancy         5123329069                       # Layer occupancy (ticks) (Tick)
system.membus.respLayer1.utilization              0.0                       # Layer utilization (Ratio)
system.membus.snoop_filter.totRequests         217341                       # Total number of requests made to the snoop filter. (Count)
system.membus.snoop_filter.hitSingleRequests        89538                       # Number of requests hitting in the snoop filter with a single holder of the requested data. (Count)
system.membus.snoop_filter.hitMultiRequests            0                       # Number of requests hitting in the snoop filter with multiple (>1) holders of the requested data. (Count)
system.membus.snoop_filter.totSnoops                0                       # Total number of snoops made to the snoop filter. (Count)
system.membus.snoop_filter.hitSingleSnoops            0                       # Number of snoops hitting in the snoop filter with a single holder of the requested data. (Count)
system.membus.snoop_filter.hitMultiSnoops            0                       # Number of snoops hitting in the snoop filter with multiple (>1) holders of the requested data. (Count)
system.tol2bus.transDist::ReadReq              301867                       # Transaction distribution (Count)
system.tol2bus.transDist::ReadResp             354494                       # Transaction distribution (Count)
system.tol2bus.transDist::WriteReq             376751                       # Transaction distribution (Count)
system.tol2bus.transDist::WriteResp            376751                       # Transaction distribution (Count)
system.tol2bus.transDist::WritebackDirty       161048                       # Transaction distribution (Count)
system.tol2bus.transDist::WritebackClean         2583                       # Transaction distribution (Count)
system.tol2bus.transDist::CleanEvict            56038                       # Transaction distribution (Count)
system.tol2bus.transDist::UpgradeReq                3                       # Transaction distribution (Count)
system.tol2bus.transDist::UpgradeResp               3                       # Transaction distribution (Count)
system.tol2bus.transDist::ReadExReq             77908                       # Transaction distribution (Count)
system.tol2bus.transDist::ReadExResp            77908                       # Transaction distribution (Count)
system.tol2bus.transDist::ReadCleanReq           3098                       # Transaction distribution (Count)
system.tol2bus.transDist::ReadSharedReq         49530                       # Transaction distribution (Count)
system.tol2bus.pktCount_system.cpu.icache.mem_side_port::system.l2.cpu_side_port         8774                       # Packet count per connected requestor and responder (Count)
system.tol2bus.pktCount_system.cpu.dcache.mem_side_port::system.l2.cpu_side_port      1739044                       # Packet count per connected requestor and responder (Count)
system.tol2bus.pktCount::total                1747818                       # Packet count per connected requestor and responder (Count)
system.tol2bus.pktSize_system.cpu.icache.mem_side_port::system.l2.cpu_side_port       363264                       # Cumulative packet size per connected requestor and responder (Byte)
system.tol2bus.pktSize_system.cpu.dcache.mem_side_port::system.l2.cpu_side_port     14174119                       # Cumulative packet size per connected requestor and responder (Byte)
system.tol2bus.pktSize::total                14537383                       # Cumulative packet size per connected requestor and responder (Byte)
system.tol2bus.snoops                           90164                       # Total snoops (Count)
system.tol2bus.snoopTraffic                   4976448                       # Total snoop traffic (Byte)
system.tol2bus.snoopFanout::samples            899317                       # Request fanout histogram (Count)
system.tol2bus.snoopFanout::mean             0.000723                       # Request fanout histogram (Count)
system.tol2bus.snoopFanout::stdev            0.026875                       # Request fanout histogram (Count)
system.tol2bus.snoopFanout::underflows              0      0.00%      0.00% # Request fanout histogram (Count)
system.tol2bus.snoopFanout::0                  898667     99.93%     99.93% # Request fanout histogram (Count)
system.tol2bus.snoopFanout::1                     650      0.07%    100.00% # Request fanout histogram (Count)
system.tol2bus.snoopFanout::2                       0      0.00%    100.00% # Request fanout histogram (Count)
system.tol2bus.snoopFanout::3                       0      0.00%    100.00% # Request fanout histogram (Count)
system.tol2bus.snoopFanout::4                       0      0.00%    100.00% # Request fanout histogram (Count)
system.tol2bus.snoopFanout::overflows               0      0.00%    100.00% # Request fanout histogram (Count)
system.tol2bus.snoopFanout::min_value               0                       # Request fanout histogram (Count)
system.tol2bus.snoopFanout::max_value               1                       # Request fanout histogram (Count)
system.tol2bus.snoopFanout::total              899317                       # Request fanout histogram (Count)
system.tol2bus.power_state.pwrStateResidencyTicks::UNDEFINED 1875209896090                       # Cumulative time (in ticks) in various power states (Tick)
system.tol2bus.reqLayer0.occupancy          465485149                       # Layer occupancy (ticks) (Tick)
system.tol2bus.reqLayer0.utilization              0.0                       # Layer utilization (Ratio)
system.tol2bus.respLayer0.occupancy           2909331                       # Layer occupancy (ticks) (Tick)
system.tol2bus.respLayer0.utilization             0.0                       # Layer utilization (Ratio)
system.tol2bus.respLayer1.occupancy         427764494                       # Layer occupancy (ticks) (Tick)
system.tol2bus.respLayer1.utilization             0.0                       # Layer utilization (Ratio)
system.tol2bus.snoop_filter.totRequests        260048                       # Total number of requests made to the snoop filter. (Count)
system.tol2bus.snoop_filter.hitSingleRequests       129513                       # Number of requests hitting in the snoop filter with a single holder of the requested data. (Count)
system.tol2bus.snoop_filter.hitMultiRequests           17                       # Number of requests hitting in the snoop filter with multiple (>1) holders of the requested data. (Count)
system.tol2bus.snoop_filter.totSnoops             630                       # Total number of snoops made to the snoop filter. (Count)
system.tol2bus.snoop_filter.hitSingleSnoops          630                       # Number of snoops hitting in the snoop filter with a single holder of the requested data. (Count)
system.tol2bus.snoop_filter.hitMultiSnoops            0                       # Number of snoops hitting in the snoop filter with multiple (>1) holders of the requested data. (Count)
system.voltage_domain.voltage                       1                       # Voltage in Volts (Volt)
system.workload.inst.arm                            0                       # number of arm instructions executed (Count)
system.workload.inst.quiesce                        0                       # number of quiesce instructions executed (Count)

---------- End Simulation Statistics   ----------
