
---------- Begin Simulation Statistics ----------
simSeconds                                   0.195452                       # Number of seconds simulated (Second)
simTicks                                 195452396150                       # Number of ticks simulated (Tick)
finalTick                                195452396150                       # Number of ticks from beginning of simulation (restored from checkpoints and never reset) (Tick)
simFreq                                  1000000000000                       # The number of ticks per simulated second ((Tick/Second))
hostSeconds                                    736.52                       # Real time elapsed on the host (Second)
hostTickRate                                265372473                       # The number of ticks simulated per host second (ticks/s) ((Tick/Second))
hostMemory                                    2054032                       # Number of bytes of host memory used (Byte)
simInsts                                     85804688                       # Number of instructions simulated (Count)
simOps                                      169096680                       # Number of ops (including micro ops) simulated (Count)
hostInstRate                                   116500                       # Simulator instruction rate (inst/s) ((Count/Second))
hostOpRate                                     229588                       # Simulator op (including micro ops) rate (op/s) ((Count/Second))
system.clk_domain.clock                          2500                       # Clock period in ticks (Tick)
system.cpu.numCycles                        624448551                       # Number of cpu cycles simulated (Cycle)
system.cpu.cpi                               7.277558                       # CPI: cycles per instruction (core level) ((Cycle/Count))
system.cpu.ipc                               0.137409                       # IPC: instructions per cycle (core level) ((Count/Cycle))
system.cpu.numWorkItemsStarted                      0                       # Number of work items this cpu started (Count)
system.cpu.numWorkItemsCompleted                    0                       # Number of work items this cpu completed (Count)
system.cpu.instsAdded                       169683590                       # Number of instructions added to the IQ (excludes non-spec) (Count)
system.cpu.nonSpecInstsAdded                      981                       # Number of non-speculative instructions added to the IQ (Count)
system.cpu.instsIssued                      169562679                       # Number of instructions issued (Count)
system.cpu.squashedInstsIssued                   1760                       # Number of squashed instructions issued (Count)
system.cpu.squashedInstsExamined               587885                       # Number of squashed instructions iterated over during squash; mainly for profiling (Count)
system.cpu.squashedOperandsExamined            784816                       # Number of squashed operands that are examined and possibly removed from graph (Count)
system.cpu.squashedNonSpecRemoved                 288                       # Number of squashed non-spec instructions that were removed (Count)
system.cpu.numIssuedDist::samples           621534712                       # Number of insts issued each cycle (Count)
system.cpu.numIssuedDist::mean               0.272813                       # Number of insts issued each cycle (Count)
system.cpu.numIssuedDist::stdev              1.176089                       # Number of insts issued each cycle (Count)
system.cpu.numIssuedDist::underflows                0      0.00%      0.00% # Number of insts issued each cycle (Count)
system.cpu.numIssuedDist::0                 580857602     93.46%     93.46% # Number of insts issued each cycle (Count)
system.cpu.numIssuedDist::1                   7180495      1.16%     94.61% # Number of insts issued each cycle (Count)
system.cpu.numIssuedDist::2                   3612618      0.58%     95.19% # Number of insts issued each cycle (Count)
system.cpu.numIssuedDist::3                   7175590      1.15%     96.35% # Number of insts issued each cycle (Count)
system.cpu.numIssuedDist::4                   3657771      0.59%     96.93% # Number of insts issued each cycle (Count)
system.cpu.numIssuedDist::5                   4800189      0.77%     97.71% # Number of insts issued each cycle (Count)
system.cpu.numIssuedDist::6                   7134794      1.15%     98.86% # Number of insts issued each cycle (Count)
system.cpu.numIssuedDist::7                   4735839      0.76%     99.62% # Number of insts issued each cycle (Count)
system.cpu.numIssuedDist::8                   2379814      0.38%    100.00% # Number of insts issued each cycle (Count)
system.cpu.numIssuedDist::overflows                 0      0.00%    100.00% # Number of insts issued each cycle (Count)
system.cpu.numIssuedDist::min_value                 0                       # Number of insts issued each cycle (Count)
system.cpu.numIssuedDist::max_value                 8                       # Number of insts issued each cycle (Count)
system.cpu.numIssuedDist::total             621534712                       # Number of insts issued each cycle (Count)
system.cpu.statFuBusy::No_OpClass                   0      0.00%      0.00% # attempts to use FU when none available (Count)
system.cpu.statFuBusy::IntAlu                 2385850     99.84%     99.84% # attempts to use FU when none available (Count)
system.cpu.statFuBusy::IntMult                      0      0.00%     99.84% # attempts to use FU when none available (Count)
system.cpu.statFuBusy::IntDiv                       0      0.00%     99.84% # attempts to use FU when none available (Count)
system.cpu.statFuBusy::FloatAdd                     0      0.00%     99.84% # attempts to use FU when none available (Count)
system.cpu.statFuBusy::FloatCmp                     0      0.00%     99.84% # attempts to use FU when none available (Count)
system.cpu.statFuBusy::FloatCvt                     3      0.00%     99.84% # attempts to use FU when none available (Count)
system.cpu.statFuBusy::FloatMult                    0      0.00%     99.84% # attempts to use FU when none available (Count)
system.cpu.statFuBusy::FloatMultAcc                 0      0.00%     99.84% # attempts to use FU when none available (Count)
system.cpu.statFuBusy::FloatDiv                     0      0.00%     99.84% # attempts to use FU when none available (Count)
system.cpu.statFuBusy::FloatMisc                    0      0.00%     99.84% # attempts to use FU when none available (Count)
system.cpu.statFuBusy::FloatSqrt                    0      0.00%     99.84% # attempts to use FU when none available (Count)
system.cpu.statFuBusy::SimdAdd                      0      0.00%     99.84% # attempts to use FU when none available (Count)
system.cpu.statFuBusy::SimdAddAcc                   0      0.00%     99.84% # attempts to use FU when none available (Count)
system.cpu.statFuBusy::SimdAlu                     15      0.00%     99.84% # attempts to use FU when none available (Count)
system.cpu.statFuBusy::SimdCmp                      0      0.00%     99.84% # attempts to use FU when none available (Count)
system.cpu.statFuBusy::SimdCvt                      7      0.00%     99.85% # attempts to use FU when none available (Count)
system.cpu.statFuBusy::SimdMisc                     3      0.00%     99.85% # attempts to use FU when none available (Count)
system.cpu.statFuBusy::SimdMult                     0      0.00%     99.85% # attempts to use FU when none available (Count)
system.cpu.statFuBusy::SimdMultAcc                  0      0.00%     99.85% # attempts to use FU when none available (Count)
system.cpu.statFuBusy::SimdMatMultAcc               0      0.00%     99.85% # attempts to use FU when none available (Count)
system.cpu.statFuBusy::SimdShift                    0      0.00%     99.85% # attempts to use FU when none available (Count)
system.cpu.statFuBusy::SimdShiftAcc                 0      0.00%     99.85% # attempts to use FU when none available (Count)
system.cpu.statFuBusy::SimdDiv                      0      0.00%     99.85% # attempts to use FU when none available (Count)
system.cpu.statFuBusy::SimdSqrt                     0      0.00%     99.85% # attempts to use FU when none available (Count)
system.cpu.statFuBusy::SimdFloatAdd                 0      0.00%     99.85% # attempts to use FU when none available (Count)
system.cpu.statFuBusy::SimdFloatAlu                 0      0.00%     99.85% # attempts to use FU when none available (Count)
system.cpu.statFuBusy::SimdFloatCmp                 0      0.00%     99.85% # attempts to use FU when none available (Count)
system.cpu.statFuBusy::SimdFloatCvt                 1      0.00%     99.85% # attempts to use FU when none available (Count)
system.cpu.statFuBusy::SimdFloatDiv                 0      0.00%     99.85% # attempts to use FU when none available (Count)
system.cpu.statFuBusy::SimdFloatMisc                0      0.00%     99.85% # attempts to use FU when none available (Count)
system.cpu.statFuBusy::SimdFloatMult                0      0.00%     99.85% # attempts to use FU when none available (Count)
system.cpu.statFuBusy::SimdFloatMultAcc             0      0.00%     99.85% # attempts to use FU when none available (Count)
system.cpu.statFuBusy::SimdFloatMatMultAcc            0      0.00%     99.85% # attempts to use FU when none available (Count)
system.cpu.statFuBusy::SimdFloatSqrt                0      0.00%     99.85% # attempts to use FU when none available (Count)
system.cpu.statFuBusy::SimdReduceAdd                0      0.00%     99.85% # attempts to use FU when none available (Count)
system.cpu.statFuBusy::SimdReduceAlu                0      0.00%     99.85% # attempts to use FU when none available (Count)
system.cpu.statFuBusy::SimdReduceCmp                0      0.00%     99.85% # attempts to use FU when none available (Count)
system.cpu.statFuBusy::SimdFloatReduceAdd            0      0.00%     99.85% # attempts to use FU when none available (Count)
system.cpu.statFuBusy::SimdFloatReduceCmp            0      0.00%     99.85% # attempts to use FU when none available (Count)
system.cpu.statFuBusy::SimdAes                      0      0.00%     99.85% # attempts to use FU when none available (Count)
system.cpu.statFuBusy::SimdAesMix                   0      0.00%     99.85% # attempts to use FU when none available (Count)
system.cpu.statFuBusy::SimdSha1Hash                 0      0.00%     99.85% # attempts to use FU when none available (Count)
system.cpu.statFuBusy::SimdSha1Hash2                0      0.00%     99.85% # attempts to use FU when none available (Count)
system.cpu.statFuBusy::SimdSha256Hash               0      0.00%     99.85% # attempts to use FU when none available (Count)
system.cpu.statFuBusy::SimdSha256Hash2              0      0.00%     99.85% # attempts to use FU when none available (Count)
system.cpu.statFuBusy::SimdShaSigma2                0      0.00%     99.85% # attempts to use FU when none available (Count)
system.cpu.statFuBusy::SimdShaSigma3                0      0.00%     99.85% # attempts to use FU when none available (Count)
system.cpu.statFuBusy::SimdPredAlu                  0      0.00%     99.85% # attempts to use FU when none available (Count)
system.cpu.statFuBusy::Matrix                       0      0.00%     99.85% # attempts to use FU when none available (Count)
system.cpu.statFuBusy::MatrixMov                    0      0.00%     99.85% # attempts to use FU when none available (Count)
system.cpu.statFuBusy::MatrixOP                     0      0.00%     99.85% # attempts to use FU when none available (Count)
system.cpu.statFuBusy::MemRead                   2086      0.09%     99.93% # attempts to use FU when none available (Count)
system.cpu.statFuBusy::MemWrite                  1498      0.06%    100.00% # attempts to use FU when none available (Count)
system.cpu.statFuBusy::FloatMemRead               104      0.00%    100.00% # attempts to use FU when none available (Count)
system.cpu.statFuBusy::FloatMemWrite                5      0.00%    100.00% # attempts to use FU when none available (Count)
system.cpu.statFuBusy::IprAccess                    0      0.00%    100.00% # attempts to use FU when none available (Count)
system.cpu.statFuBusy::InstPrefetch                 0      0.00%    100.00% # attempts to use FU when none available (Count)
system.cpu.statFuBusy::SimdUnitStrideLoad            0      0.00%    100.00% # attempts to use FU when none available (Count)
system.cpu.statFuBusy::SimdUnitStrideStore            0      0.00%    100.00% # attempts to use FU when none available (Count)
system.cpu.statFuBusy::SimdUnitStrideMaskLoad            0      0.00%    100.00% # attempts to use FU when none available (Count)
system.cpu.statFuBusy::SimdUnitStrideMaskStore            0      0.00%    100.00% # attempts to use FU when none available (Count)
system.cpu.statFuBusy::SimdStridedLoad              0      0.00%    100.00% # attempts to use FU when none available (Count)
system.cpu.statFuBusy::SimdStridedStore             0      0.00%    100.00% # attempts to use FU when none available (Count)
system.cpu.statFuBusy::SimdIndexedLoad              0      0.00%    100.00% # attempts to use FU when none available (Count)
system.cpu.statFuBusy::SimdIndexedStore             0      0.00%    100.00% # attempts to use FU when none available (Count)
system.cpu.statFuBusy::SimdWholeRegisterLoad            0      0.00%    100.00% # attempts to use FU when none available (Count)
system.cpu.statFuBusy::SimdWholeRegisterStore            0      0.00%    100.00% # attempts to use FU when none available (Count)
system.cpu.statFuBusy::SimdUnitStrideFaultOnlyFirstLoad            0      0.00%    100.00% # attempts to use FU when none available (Count)
system.cpu.statFuBusy::SimdUnitStrideSegmentedLoad            0      0.00%    100.00% # attempts to use FU when none available (Count)
system.cpu.statFuBusy::SimdUnitStrideSegmentedStore            0      0.00%    100.00% # attempts to use FU when none available (Count)
system.cpu.statFuBusy::SimdExt                      0      0.00%    100.00% # attempts to use FU when none available (Count)
system.cpu.statFuBusy::SimdFloatExt                 0      0.00%    100.00% # attempts to use FU when none available (Count)
system.cpu.statFuBusy::SimdConfig                   0      0.00%    100.00% # attempts to use FU when none available (Count)
system.cpu.statIssuedInstType_0::No_OpClass         5269      0.00%      0.00% # Number of instructions issued per FU type, per thread (Count)
system.cpu.statIssuedInstType_0::IntAlu     128859254     76.00%     76.00% # Number of instructions issued per FU type, per thread (Count)
system.cpu.statIssuedInstType_0::IntMult         4824      0.00%     76.00% # Number of instructions issued per FU type, per thread (Count)
system.cpu.statIssuedInstType_0::IntDiv          4292      0.00%     76.00% # Number of instructions issued per FU type, per thread (Count)
system.cpu.statIssuedInstType_0::FloatAdd        24487      0.01%     76.02% # Number of instructions issued per FU type, per thread (Count)
system.cpu.statIssuedInstType_0::FloatCmp            0      0.00%     76.02% # Number of instructions issued per FU type, per thread (Count)
system.cpu.statIssuedInstType_0::FloatCvt          484      0.00%     76.02% # Number of instructions issued per FU type, per thread (Count)
system.cpu.statIssuedInstType_0::FloatMult            0      0.00%     76.02% # Number of instructions issued per FU type, per thread (Count)
system.cpu.statIssuedInstType_0::FloatMultAcc            0      0.00%     76.02% # Number of instructions issued per FU type, per thread (Count)
system.cpu.statIssuedInstType_0::FloatDiv            0      0.00%     76.02% # Number of instructions issued per FU type, per thread (Count)
system.cpu.statIssuedInstType_0::FloatMisc            0      0.00%     76.02% # Number of instructions issued per FU type, per thread (Count)
system.cpu.statIssuedInstType_0::FloatSqrt            0      0.00%     76.02% # Number of instructions issued per FU type, per thread (Count)
system.cpu.statIssuedInstType_0::SimdAdd           16      0.00%     76.02% # Number of instructions issued per FU type, per thread (Count)
system.cpu.statIssuedInstType_0::SimdAddAcc            0      0.00%     76.02% # Number of instructions issued per FU type, per thread (Count)
system.cpu.statIssuedInstType_0::SimdAlu        10330      0.01%     76.02% # Number of instructions issued per FU type, per thread (Count)
system.cpu.statIssuedInstType_0::SimdCmp            0      0.00%     76.02% # Number of instructions issued per FU type, per thread (Count)
system.cpu.statIssuedInstType_0::SimdCvt          405      0.00%     76.02% # Number of instructions issued per FU type, per thread (Count)
system.cpu.statIssuedInstType_0::SimdMisc         8148      0.00%     76.03% # Number of instructions issued per FU type, per thread (Count)
system.cpu.statIssuedInstType_0::SimdMult            0      0.00%     76.03% # Number of instructions issued per FU type, per thread (Count)
system.cpu.statIssuedInstType_0::SimdMultAcc            0      0.00%     76.03% # Number of instructions issued per FU type, per thread (Count)
system.cpu.statIssuedInstType_0::SimdMatMultAcc            0      0.00%     76.03% # Number of instructions issued per FU type, per thread (Count)
system.cpu.statIssuedInstType_0::SimdShift            0      0.00%     76.03% # Number of instructions issued per FU type, per thread (Count)
system.cpu.statIssuedInstType_0::SimdShiftAcc            0      0.00%     76.03% # Number of instructions issued per FU type, per thread (Count)
system.cpu.statIssuedInstType_0::SimdDiv            0      0.00%     76.03% # Number of instructions issued per FU type, per thread (Count)
system.cpu.statIssuedInstType_0::SimdSqrt            0      0.00%     76.03% # Number of instructions issued per FU type, per thread (Count)
system.cpu.statIssuedInstType_0::SimdFloatAdd         4611      0.00%     76.03% # Number of instructions issued per FU type, per thread (Count)
system.cpu.statIssuedInstType_0::SimdFloatAlu            0      0.00%     76.03% # Number of instructions issued per FU type, per thread (Count)
system.cpu.statIssuedInstType_0::SimdFloatCmp            0      0.00%     76.03% # Number of instructions issued per FU type, per thread (Count)
system.cpu.statIssuedInstType_0::SimdFloatCvt        10380      0.01%     76.04% # Number of instructions issued per FU type, per thread (Count)
system.cpu.statIssuedInstType_0::SimdFloatDiv         2305      0.00%     76.04% # Number of instructions issued per FU type, per thread (Count)
system.cpu.statIssuedInstType_0::SimdFloatMisc            0      0.00%     76.04% # Number of instructions issued per FU type, per thread (Count)
system.cpu.statIssuedInstType_0::SimdFloatMult         2690      0.00%     76.04% # Number of instructions issued per FU type, per thread (Count)
system.cpu.statIssuedInstType_0::SimdFloatMultAcc            0      0.00%     76.04% # Number of instructions issued per FU type, per thread (Count)
system.cpu.statIssuedInstType_0::SimdFloatMatMultAcc            0      0.00%     76.04% # Number of instructions issued per FU type, per thread (Count)
system.cpu.statIssuedInstType_0::SimdFloatSqrt            0      0.00%     76.04% # Number of instructions issued per FU type, per thread (Count)
system.cpu.statIssuedInstType_0::SimdReduceAdd            0      0.00%     76.04% # Number of instructions issued per FU type, per thread (Count)
system.cpu.statIssuedInstType_0::SimdReduceAlu            0      0.00%     76.04% # Number of instructions issued per FU type, per thread (Count)
system.cpu.statIssuedInstType_0::SimdReduceCmp            0      0.00%     76.04% # Number of instructions issued per FU type, per thread (Count)
system.cpu.statIssuedInstType_0::SimdFloatReduceAdd            0      0.00%     76.04% # Number of instructions issued per FU type, per thread (Count)
system.cpu.statIssuedInstType_0::SimdFloatReduceCmp            0      0.00%     76.04% # Number of instructions issued per FU type, per thread (Count)
system.cpu.statIssuedInstType_0::SimdAes            0      0.00%     76.04% # Number of instructions issued per FU type, per thread (Count)
system.cpu.statIssuedInstType_0::SimdAesMix            0      0.00%     76.04% # Number of instructions issued per FU type, per thread (Count)
system.cpu.statIssuedInstType_0::SimdSha1Hash            0      0.00%     76.04% # Number of instructions issued per FU type, per thread (Count)
system.cpu.statIssuedInstType_0::SimdSha1Hash2            0      0.00%     76.04% # Number of instructions issued per FU type, per thread (Count)
system.cpu.statIssuedInstType_0::SimdSha256Hash            0      0.00%     76.04% # Number of instructions issued per FU type, per thread (Count)
system.cpu.statIssuedInstType_0::SimdSha256Hash2            0      0.00%     76.04% # Number of instructions issued per FU type, per thread (Count)
system.cpu.statIssuedInstType_0::SimdShaSigma2            0      0.00%     76.04% # Number of instructions issued per FU type, per thread (Count)
system.cpu.statIssuedInstType_0::SimdShaSigma3            0      0.00%     76.04% # Number of instructions issued per FU type, per thread (Count)
system.cpu.statIssuedInstType_0::SimdPredAlu            0      0.00%     76.04% # Number of instructions issued per FU type, per thread (Count)
system.cpu.statIssuedInstType_0::Matrix             0      0.00%     76.04% # Number of instructions issued per FU type, per thread (Count)
system.cpu.statIssuedInstType_0::MatrixMov            0      0.00%     76.04% # Number of instructions issued per FU type, per thread (Count)
system.cpu.statIssuedInstType_0::MatrixOP            0      0.00%     76.04% # Number of instructions issued per FU type, per thread (Count)
system.cpu.statIssuedInstType_0::MemRead     26271159     15.49%     91.53% # Number of instructions issued per FU type, per thread (Count)
system.cpu.statIssuedInstType_0::MemWrite     14313387      8.44%     99.98% # Number of instructions issued per FU type, per thread (Count)
system.cpu.statIssuedInstType_0::FloatMemRead        28246      0.02%     99.99% # Number of instructions issued per FU type, per thread (Count)
system.cpu.statIssuedInstType_0::FloatMemWrite        12392      0.01%    100.00% # Number of instructions issued per FU type, per thread (Count)
system.cpu.statIssuedInstType_0::IprAccess            0      0.00%    100.00% # Number of instructions issued per FU type, per thread (Count)
system.cpu.statIssuedInstType_0::InstPrefetch            0      0.00%    100.00% # Number of instructions issued per FU type, per thread (Count)
system.cpu.statIssuedInstType_0::SimdUnitStrideLoad            0      0.00%    100.00% # Number of instructions issued per FU type, per thread (Count)
system.cpu.statIssuedInstType_0::SimdUnitStrideStore            0      0.00%    100.00% # Number of instructions issued per FU type, per thread (Count)
system.cpu.statIssuedInstType_0::SimdUnitStrideMaskLoad            0      0.00%    100.00% # Number of instructions issued per FU type, per thread (Count)
system.cpu.statIssuedInstType_0::SimdUnitStrideMaskStore            0      0.00%    100.00% # Number of instructions issued per FU type, per thread (Count)
system.cpu.statIssuedInstType_0::SimdStridedLoad            0      0.00%    100.00% # Number of instructions issued per FU type, per thread (Count)
system.cpu.statIssuedInstType_0::SimdStridedStore            0      0.00%    100.00% # Number of instructions issued per FU type, per thread (Count)
system.cpu.statIssuedInstType_0::SimdIndexedLoad            0      0.00%    100.00% # Number of instructions issued per FU type, per thread (Count)
system.cpu.statIssuedInstType_0::SimdIndexedStore            0      0.00%    100.00% # Number of instructions issued per FU type, per thread (Count)
system.cpu.statIssuedInstType_0::SimdWholeRegisterLoad            0      0.00%    100.00% # Number of instructions issued per FU type, per thread (Count)
system.cpu.statIssuedInstType_0::SimdWholeRegisterStore            0      0.00%    100.00% # Number of instructions issued per FU type, per thread (Count)
system.cpu.statIssuedInstType_0::SimdUnitStrideFaultOnlyFirstLoad            0      0.00%    100.00% # Number of instructions issued per FU type, per thread (Count)
system.cpu.statIssuedInstType_0::SimdUnitStrideSegmentedLoad            0      0.00%    100.00% # Number of instructions issued per FU type, per thread (Count)
system.cpu.statIssuedInstType_0::SimdUnitStrideSegmentedStore            0      0.00%    100.00% # Number of instructions issued per FU type, per thread (Count)
system.cpu.statIssuedInstType_0::SimdExt            0      0.00%    100.00% # Number of instructions issued per FU type, per thread (Count)
system.cpu.statIssuedInstType_0::SimdFloatExt            0      0.00%    100.00% # Number of instructions issued per FU type, per thread (Count)
system.cpu.statIssuedInstType_0::SimdConfig            0      0.00%    100.00% # Number of instructions issued per FU type, per thread (Count)
system.cpu.statIssuedInstType_0::total      169562679                       # Number of instructions issued per FU type, per thread (Count)
system.cpu.issueRate                         0.271540                       # Inst issue rate ((Count/Cycle))
system.cpu.fuBusy                             2389572                       # FU busy when requested (Count)
system.cpu.fuBusyRate                        0.014093                       # FU busy rate (busy events/executed inst) ((Count/Count))
system.cpu.intInstQueueReads                962842135                       # Number of integer instruction queue reads (Count)
system.cpu.intInstQueueWrites               170167214                       # Number of integer instruction queue writes (Count)
system.cpu.intInstQueueWakeupAccesses       169405590                       # Number of integer instruction queue wakeup accesses (Count)
system.cpu.fpInstQueueReads                    209267                       # Number of floating instruction queue reads (Count)
system.cpu.fpInstQueueWrites                   105787                       # Number of floating instruction queue writes (Count)
system.cpu.fpInstQueueWakeupAccesses           104416                       # Number of floating instruction queue wakeup accesses (Count)
system.cpu.vecInstQueueReads                        0                       # Number of vector instruction queue reads (Count)
system.cpu.vecInstQueueWrites                       0                       # Number of vector instruction queue writes (Count)
system.cpu.vecInstQueueWakeupAccesses               0                       # Number of vector instruction queue wakeup accesses (Count)
system.cpu.intAluAccesses                   171842284                       # Number of integer alu accesses (Count)
system.cpu.fpAluAccesses                       104698                       # Number of floating point alu accesses (Count)
system.cpu.vecAluAccesses                           0                       # Number of vector alu accesses (Count)
system.cpu.numSquashedInsts                     33340                       # Number of squashed instructions skipped in execute (Count)
system.cpu.numSwp                                   0                       # Number of swp insts executed (Count)
system.cpu.timesIdled                            1730                       # Number of times that the entire CPU went into an idle state and unscheduled itself (Count)
system.cpu.idleCycles                         2913839                       # Total number of cycles that the CPU has spent unscheduled due to idling (Cycle)
system.cpu.MemDepUnit__0.insertedLoads       26313303                       # Number of loads inserted to the mem dependence unit. (Count)
system.cpu.MemDepUnit__0.insertedStores      14330843                       # Number of stores inserted to the mem dependence unit. (Count)
system.cpu.MemDepUnit__0.conflictingLoads      2422867                       # Number of conflicting loads. (Count)
system.cpu.MemDepUnit__0.conflictingStores        11610                       # Number of conflicting stores. (Count)
system.cpu.MemDepUnit__1.insertedLoads              0                       # Number of loads inserted to the mem dependence unit. (Count)
system.cpu.MemDepUnit__1.insertedStores             0                       # Number of stores inserted to the mem dependence unit. (Count)
system.cpu.MemDepUnit__1.conflictingLoads            0                       # Number of conflicting loads. (Count)
system.cpu.MemDepUnit__1.conflictingStores            0                       # Number of conflicting stores. (Count)
system.cpu.MemDepUnit__2.insertedLoads              0                       # Number of loads inserted to the mem dependence unit. (Count)
system.cpu.MemDepUnit__2.insertedStores             0                       # Number of stores inserted to the mem dependence unit. (Count)
system.cpu.MemDepUnit__2.conflictingLoads            0                       # Number of conflicting loads. (Count)
system.cpu.MemDepUnit__2.conflictingStores            0                       # Number of conflicting stores. (Count)
system.cpu.MemDepUnit__3.insertedLoads              0                       # Number of loads inserted to the mem dependence unit. (Count)
system.cpu.MemDepUnit__3.insertedStores             0                       # Number of stores inserted to the mem dependence unit. (Count)
system.cpu.MemDepUnit__3.conflictingLoads            0                       # Number of conflicting loads. (Count)
system.cpu.MemDepUnit__3.conflictingStores            0                       # Number of conflicting stores. (Count)
system.cpu.branchPred.lookups_0::NoBranch            0      0.00%      0.00% # Number of BP lookups (Count)
system.cpu.branchPred.lookups_0::Return       3644078     18.88%     18.88% # Number of BP lookups (Count)
system.cpu.branchPred.lookups_0::CallDirect      3577254     18.53%     37.41% # Number of BP lookups (Count)
system.cpu.branchPred.lookups_0::CallIndirect          525      0.00%     37.41% # Number of BP lookups (Count)
system.cpu.branchPred.lookups_0::DirectCond     10880858     56.37%     93.78% # Number of BP lookups (Count)
system.cpu.branchPred.lookups_0::DirectUncond        12422      0.06%     93.84% # Number of BP lookups (Count)
system.cpu.branchPred.lookups_0::IndirectCond            0      0.00%     93.84% # Number of BP lookups (Count)
system.cpu.branchPred.lookups_0::IndirectUncond      1188192      6.16%    100.00% # Number of BP lookups (Count)
system.cpu.branchPred.lookups_0::total       19303329                       # Number of BP lookups (Count)
system.cpu.branchPred.squashes_0::NoBranch            0      0.00%      0.00% # Number of branches that got squashed (completely removed) as an earlier branch was mispredicted. (Count)
system.cpu.branchPred.squashes_0::Return        80685     32.16%     32.16% # Number of branches that got squashed (completely removed) as an earlier branch was mispredicted. (Count)
system.cpu.branchPred.squashes_0::CallDirect        14224      5.67%     37.83% # Number of branches that got squashed (completely removed) as an earlier branch was mispredicted. (Count)
system.cpu.branchPred.squashes_0::CallIndirect          158      0.06%     37.90% # Number of branches that got squashed (completely removed) as an earlier branch was mispredicted. (Count)
system.cpu.branchPred.squashes_0::DirectCond       145564     58.03%     95.92% # Number of branches that got squashed (completely removed) as an earlier branch was mispredicted. (Count)
system.cpu.branchPred.squashes_0::DirectUncond         4942      1.97%     97.89% # Number of branches that got squashed (completely removed) as an earlier branch was mispredicted. (Count)
system.cpu.branchPred.squashes_0::IndirectCond            0      0.00%     97.89% # Number of branches that got squashed (completely removed) as an earlier branch was mispredicted. (Count)
system.cpu.branchPred.squashes_0::IndirectUncond         5290      2.11%    100.00% # Number of branches that got squashed (completely removed) as an earlier branch was mispredicted. (Count)
system.cpu.branchPred.squashes_0::total        250863                       # Number of branches that got squashed (completely removed) as an earlier branch was mispredicted. (Count)
system.cpu.branchPred.corrected_0::NoBranch            0      0.00%      0.00% # Number of branches that got corrected but not yet commited. Branches get corrected by decode or after execute. Also a branch misprediction can be detected out-of-order. Therefore, a corrected branch might not end up beeing committed in case an even earlier branch was mispredicted (Count)
system.cpu.branchPred.corrected_0::Return           19      0.04%      0.04% # Number of branches that got corrected but not yet commited. Branches get corrected by decode or after execute. Also a branch misprediction can be detected out-of-order. Therefore, a corrected branch might not end up beeing committed in case an even earlier branch was mispredicted (Count)
system.cpu.branchPred.corrected_0::CallDirect          883      1.73%      1.77% # Number of branches that got corrected but not yet commited. Branches get corrected by decode or after execute. Also a branch misprediction can be detected out-of-order. Therefore, a corrected branch might not end up beeing committed in case an even earlier branch was mispredicted (Count)
system.cpu.branchPred.corrected_0::CallIndirect          173      0.34%      2.11% # Number of branches that got corrected but not yet commited. Branches get corrected by decode or after execute. Also a branch misprediction can be detected out-of-order. Therefore, a corrected branch might not end up beeing committed in case an even earlier branch was mispredicted (Count)
system.cpu.branchPred.corrected_0::DirectCond        48918     96.02%     98.14% # Number of branches that got corrected but not yet commited. Branches get corrected by decode or after execute. Also a branch misprediction can be detected out-of-order. Therefore, a corrected branch might not end up beeing committed in case an even earlier branch was mispredicted (Count)
system.cpu.branchPred.corrected_0::DirectUncond          627      1.23%     99.37% # Number of branches that got corrected but not yet commited. Branches get corrected by decode or after execute. Also a branch misprediction can be detected out-of-order. Therefore, a corrected branch might not end up beeing committed in case an even earlier branch was mispredicted (Count)
system.cpu.branchPred.corrected_0::IndirectCond            0      0.00%     99.37% # Number of branches that got corrected but not yet commited. Branches get corrected by decode or after execute. Also a branch misprediction can be detected out-of-order. Therefore, a corrected branch might not end up beeing committed in case an even earlier branch was mispredicted (Count)
system.cpu.branchPred.corrected_0::IndirectUncond          323      0.63%    100.00% # Number of branches that got corrected but not yet commited. Branches get corrected by decode or after execute. Also a branch misprediction can be detected out-of-order. Therefore, a corrected branch might not end up beeing committed in case an even earlier branch was mispredicted (Count)
system.cpu.branchPred.corrected_0::total        50943                       # Number of branches that got corrected but not yet commited. Branches get corrected by decode or after execute. Also a branch misprediction can be detected out-of-order. Therefore, a corrected branch might not end up beeing committed in case an even earlier branch was mispredicted (Count)
system.cpu.branchPred.earlyResteers_0::NoBranch            0                       # Number of branches that got redirected after decode. (Count)
system.cpu.branchPred.earlyResteers_0::Return            0                       # Number of branches that got redirected after decode. (Count)
system.cpu.branchPred.earlyResteers_0::CallDirect            0                       # Number of branches that got redirected after decode. (Count)
system.cpu.branchPred.earlyResteers_0::CallIndirect            0                       # Number of branches that got redirected after decode. (Count)
system.cpu.branchPred.earlyResteers_0::DirectCond            0                       # Number of branches that got redirected after decode. (Count)
system.cpu.branchPred.earlyResteers_0::DirectUncond            0                       # Number of branches that got redirected after decode. (Count)
system.cpu.branchPred.earlyResteers_0::IndirectCond            0                       # Number of branches that got redirected after decode. (Count)
system.cpu.branchPred.earlyResteers_0::IndirectUncond            0                       # Number of branches that got redirected after decode. (Count)
system.cpu.branchPred.earlyResteers_0::total            0                       # Number of branches that got redirected after decode. (Count)
system.cpu.branchPred.committed_0::NoBranch            0      0.00%      0.00% # Number of branches finally committed  (Count)
system.cpu.branchPred.committed_0::Return      3563393     18.70%     18.70% # Number of branches finally committed  (Count)
system.cpu.branchPred.committed_0::CallDirect      3563030     18.70%     37.40% # Number of branches finally committed  (Count)
system.cpu.branchPred.committed_0::CallIndirect          367      0.00%     37.41% # Number of branches finally committed  (Count)
system.cpu.branchPred.committed_0::DirectCond     10735293     56.35%     93.75% # Number of branches finally committed  (Count)
system.cpu.branchPred.committed_0::DirectUncond         7480      0.04%     93.79% # Number of branches finally committed  (Count)
system.cpu.branchPred.committed_0::IndirectCond            0      0.00%     93.79% # Number of branches finally committed  (Count)
system.cpu.branchPred.committed_0::IndirectUncond      1182902      6.21%    100.00% # Number of branches finally committed  (Count)
system.cpu.branchPred.committed_0::total     19052465                       # Number of branches finally committed  (Count)
system.cpu.branchPred.mispredicted_0::NoBranch            0      0.00%      0.00% # Number of committed branches that were mispredicted. (Count)
system.cpu.branchPred.mispredicted_0::Return           11      0.02%      0.02% # Number of committed branches that were mispredicted. (Count)
system.cpu.branchPred.mispredicted_0::CallDirect          645      1.32%      1.34% # Number of committed branches that were mispredicted. (Count)
system.cpu.branchPred.mispredicted_0::CallIndirect          159      0.32%      1.66% # Number of committed branches that were mispredicted. (Count)
system.cpu.branchPred.mispredicted_0::DirectCond        47626     97.11%     98.77% # Number of committed branches that were mispredicted. (Count)
system.cpu.branchPred.mispredicted_0::DirectUncond          310      0.63%     99.40% # Number of committed branches that were mispredicted. (Count)
system.cpu.branchPred.mispredicted_0::IndirectCond            0      0.00%     99.40% # Number of committed branches that were mispredicted. (Count)
system.cpu.branchPred.mispredicted_0::IndirectUncond          293      0.60%    100.00% # Number of committed branches that were mispredicted. (Count)
system.cpu.branchPred.mispredicted_0::total        49044                       # Number of committed branches that were mispredicted. (Count)
system.cpu.branchPred.targetProvider_0::NoTarget      7211122     37.36%     37.36% # The component providing the target for taken branches (Count)
system.cpu.branchPred.targetProvider_0::BTB      7261422     37.62%     74.97% # The component providing the target for taken branches (Count)
system.cpu.branchPred.targetProvider_0::RAS      3644069     18.88%     93.85% # The component providing the target for taken branches (Count)
system.cpu.branchPred.targetProvider_0::Indirect      1186716      6.15%    100.00% # The component providing the target for taken branches (Count)
system.cpu.branchPred.targetProvider_0::total     19303329                       # The component providing the target for taken branches (Count)
system.cpu.branchPred.targetWrong_0::NoBranch        44713     88.25%     88.25% # Number of branches where the target was incorrect or not available at prediction time. (Count)
system.cpu.branchPred.targetWrong_0::Return         5914     11.67%     99.92% # Number of branches where the target was incorrect or not available at prediction time. (Count)
system.cpu.branchPred.targetWrong_0::CallDirect           19      0.04%     99.96% # Number of branches where the target was incorrect or not available at prediction time. (Count)
system.cpu.branchPred.targetWrong_0::CallIndirect           21      0.04%    100.00% # Number of branches where the target was incorrect or not available at prediction time. (Count)
system.cpu.branchPred.targetWrong_0::DirectCond            0      0.00%    100.00% # Number of branches where the target was incorrect or not available at prediction time. (Count)
system.cpu.branchPred.targetWrong_0::DirectUncond            0      0.00%    100.00% # Number of branches where the target was incorrect or not available at prediction time. (Count)
system.cpu.branchPred.targetWrong_0::IndirectCond            0      0.00%    100.00% # Number of branches where the target was incorrect or not available at prediction time. (Count)
system.cpu.branchPred.targetWrong_0::IndirectUncond            0      0.00%    100.00% # Number of branches where the target was incorrect or not available at prediction time. (Count)
system.cpu.branchPred.targetWrong_0::total        50667                       # Number of branches where the target was incorrect or not available at prediction time. (Count)
system.cpu.branchPred.condPredicted          10880858                       # Number of conditional branches predicted (Count)
system.cpu.branchPred.condPredictedTaken      3676174                       # Number of conditional branches predicted as taken (Count)
system.cpu.branchPred.condIncorrect             50943                       # Number of conditional branches incorrect (Count)
system.cpu.branchPred.predTakenBTBMiss           2225                       # Number of branches predicted taken but missed in BTB (Count)
system.cpu.branchPred.NotTakenMispredicted        45005                       # Number branches predicted 'not taken' but turned out to be taken (Count)
system.cpu.branchPred.TakenMispredicted          5938                       # Number branches predicted taken but are actually not taken (Count)
system.cpu.branchPred.BTBLookups             19303329                       # Number of BTB lookups (Count)
system.cpu.branchPred.BTBUpdates                44490                       # Number of BTB updates (Count)
system.cpu.branchPred.BTBHits                 8483343                       # Number of BTB hits (Count)
system.cpu.branchPred.BTBHitRatio            0.439476                       # BTB Hit Ratio (Ratio)
system.cpu.branchPred.BTBMispredicted            2971                       # Number BTB mispredictions. No target found or target wrong (Count)
system.cpu.branchPred.indirectLookups         1188717                       # Number of indirect predictor lookups. (Count)
system.cpu.branchPred.indirectHits            1186716                       # Number of indirect target hits. (Count)
system.cpu.branchPred.indirectMisses             2001                       # Number of indirect misses. (Count)
system.cpu.branchPred.indirectMispredicted            0                       # Number of mispredicted indirect branches. (Count)
system.cpu.branchPred.btb.lookups::NoBranch            0      0.00%      0.00% # Number of BTB lookups (Count)
system.cpu.branchPred.btb.lookups::Return      3644078     18.88%     18.88% # Number of BTB lookups (Count)
system.cpu.branchPred.btb.lookups::CallDirect      3577254     18.53%     37.41% # Number of BTB lookups (Count)
system.cpu.branchPred.btb.lookups::CallIndirect          525      0.00%     37.41% # Number of BTB lookups (Count)
system.cpu.branchPred.btb.lookups::DirectCond     10880858     56.37%     93.78% # Number of BTB lookups (Count)
system.cpu.branchPred.btb.lookups::DirectUncond        12422      0.06%     93.84% # Number of BTB lookups (Count)
system.cpu.branchPred.btb.lookups::IndirectCond            0      0.00%     93.84% # Number of BTB lookups (Count)
system.cpu.branchPred.btb.lookups::IndirectUncond      1188192      6.16%    100.00% # Number of BTB lookups (Count)
system.cpu.branchPred.btb.lookups::total     19303329                       # Number of BTB lookups (Count)
system.cpu.branchPred.btb.misses::NoBranch            0      0.00%      0.00% # Number of BTB misses (Count)
system.cpu.branchPred.btb.misses::Return      3644025     33.68%     33.68% # Number of BTB misses (Count)
system.cpu.branchPred.btb.misses::CallDirect         1222      0.01%     33.69% # Number of BTB misses (Count)
system.cpu.branchPred.btb.misses::CallIndirect          390      0.00%     33.69% # Number of BTB misses (Count)
system.cpu.branchPred.btb.misses::DirectCond      5985334     55.32%     89.01% # Number of BTB misses (Count)
system.cpu.branchPred.btb.misses::DirectUncond          823      0.01%     89.02% # Number of BTB misses (Count)
system.cpu.branchPred.btb.misses::IndirectCond            0      0.00%     89.02% # Number of BTB misses (Count)
system.cpu.branchPred.btb.misses::IndirectUncond      1188192     10.98%    100.00% # Number of BTB misses (Count)
system.cpu.branchPred.btb.misses::total      10819986                       # Number of BTB misses (Count)
system.cpu.branchPred.btb.updates::NoBranch            0      0.00%      0.00% # Number of BTB updates (Count)
system.cpu.branchPred.btb.updates::Return            0      0.00%      0.00% # Number of BTB updates (Count)
system.cpu.branchPred.btb.updates::CallDirect          883      1.98%      1.98% # Number of BTB updates (Count)
system.cpu.branchPred.btb.updates::CallIndirect            0      0.00%      1.98% # Number of BTB updates (Count)
system.cpu.branchPred.btb.updates::DirectCond        42980     96.61%     98.59% # Number of BTB updates (Count)
system.cpu.branchPred.btb.updates::DirectUncond          627      1.41%    100.00% # Number of BTB updates (Count)
system.cpu.branchPred.btb.updates::IndirectCond            0      0.00%    100.00% # Number of BTB updates (Count)
system.cpu.branchPred.btb.updates::IndirectUncond            0      0.00%    100.00% # Number of BTB updates (Count)
system.cpu.branchPred.btb.updates::total        44490                       # Number of BTB updates (Count)
system.cpu.branchPred.btb.mispredict::NoBranch            0      0.00%      0.00% # Number of BTB mispredictions. No target found or target wrong. (Count)
system.cpu.branchPred.btb.mispredict::Return            0      0.00%      0.00% # Number of BTB mispredictions. No target found or target wrong. (Count)
system.cpu.branchPred.btb.mispredict::CallDirect          883      1.98%      1.98% # Number of BTB mispredictions. No target found or target wrong. (Count)
system.cpu.branchPred.btb.mispredict::CallIndirect            0      0.00%      1.98% # Number of BTB mispredictions. No target found or target wrong. (Count)
system.cpu.branchPred.btb.mispredict::DirectCond        42980     96.61%     98.59% # Number of BTB mispredictions. No target found or target wrong. (Count)
system.cpu.branchPred.btb.mispredict::DirectUncond          627      1.41%    100.00% # Number of BTB mispredictions. No target found or target wrong. (Count)
system.cpu.branchPred.btb.mispredict::IndirectCond            0      0.00%    100.00% # Number of BTB mispredictions. No target found or target wrong. (Count)
system.cpu.branchPred.btb.mispredict::IndirectUncond            0      0.00%    100.00% # Number of BTB mispredictions. No target found or target wrong. (Count)
system.cpu.branchPred.btb.mispredict::total        44490                       # Number of BTB mispredictions. No target found or target wrong. (Count)
system.cpu.branchPred.btb.power_state.pwrStateResidencyTicks::UNDEFINED 195452396150                       # Cumulative time (in ticks) in various power states (Tick)
system.cpu.branchPred.indirectBranchPred.lookups      1188717                       # Number of lookups (Count)
system.cpu.branchPred.indirectBranchPred.hits      1186716                       # Number of hits of a tag (Count)
system.cpu.branchPred.indirectBranchPred.misses         2001                       # Number of misses (Count)
system.cpu.branchPred.indirectBranchPred.targetRecords          496                       # Number of targets that where recorded/installed in the cache (Count)
system.cpu.branchPred.indirectBranchPred.indirectRecords      1189213                       # Number of indirect branches/calls recorded in the indirect hist (Count)
system.cpu.branchPred.indirectBranchPred.speculativeOverflows            0                       # Number of times more than the allowed capacity for speculative branches/calls where in flight and destroy the path history (Count)
system.cpu.branchPred.ras.pushes              3658464                       # Number of times a PC was pushed onto the RAS (Count)
system.cpu.branchPred.ras.pops                3658460                       # Number of times a PC was poped from the RAS (Count)
system.cpu.branchPred.ras.squashes              95067                       # Number of times the stack operation was squashed due to wrong speculation. (Count)
system.cpu.branchPred.ras.used                3563393                       # Number of times the RAS is the provider (Count)
system.cpu.branchPred.ras.correct             3563382                       # Number of times the RAS is the provider and the prediction is correct (Count)
system.cpu.branchPred.ras.incorrect                11                       # Number of times the RAS is the provider and the prediction is wrong (Count)
system.cpu.commit.commitSquashedInsts          583883                       # The number of squashed insts skipped by commit (Count)
system.cpu.commit.commitNonSpecStalls             693                       # The number of times commit has been forced to stall to communicate backwards (Count)
system.cpu.commit.branchMispredicts             50806                       # The number of times a branch was mispredicted (Count)
system.cpu.commit.numCommittedDist::samples    621421091                       # Number of insts commited each cycle (Count)
system.cpu.commit.numCommittedDist::mean     0.272113                       # Number of insts commited each cycle (Count)
system.cpu.commit.numCommittedDist::stdev     1.219306                       # Number of insts commited each cycle (Count)
system.cpu.commit.numCommittedDist::underflows            0      0.00%      0.00% # Number of insts commited each cycle (Count)
system.cpu.commit.numCommittedDist::0       580886356     93.48%     93.48% # Number of insts commited each cycle (Count)
system.cpu.commit.numCommittedDist::1         7262907      1.17%     94.65% # Number of insts commited each cycle (Count)
system.cpu.commit.numCommittedDist::2         5919467      0.95%     95.60% # Number of insts commited each cycle (Count)
system.cpu.commit.numCommittedDist::3         7124197      1.15%     96.74% # Number of insts commited each cycle (Count)
system.cpu.commit.numCommittedDist::4         4733142      0.76%     97.51% # Number of insts commited each cycle (Count)
system.cpu.commit.numCommittedDist::5         2408413      0.39%     97.89% # Number of insts commited each cycle (Count)
system.cpu.commit.numCommittedDist::6         3510824      0.56%     98.46% # Number of insts commited each cycle (Count)
system.cpu.commit.numCommittedDist::7           23609      0.00%     98.46% # Number of insts commited each cycle (Count)
system.cpu.commit.numCommittedDist::8         9552176      1.54%    100.00% # Number of insts commited each cycle (Count)
system.cpu.commit.numCommittedDist::overflows            0      0.00%    100.00% # Number of insts commited each cycle (Count)
system.cpu.commit.numCommittedDist::min_value            0                       # Number of insts commited each cycle (Count)
system.cpu.commit.numCommittedDist::max_value            8                       # Number of insts commited each cycle (Count)
system.cpu.commit.numCommittedDist::total    621421091                       # Number of insts commited each cycle (Count)
system.cpu.commit.amos                              0                       # Number of atomic instructions committed (Count)
system.cpu.commit.membars                         306                       # Number of memory barriers committed (Count)
system.cpu.commit.functionCalls               3563397                       # Number of function calls committed. (Count)
system.cpu.commit.committedInstType_0::No_OpClass         2403      0.00%      0.00% # Class of committed instruction (Count)
system.cpu.commit.committedInstType_0::IntAlu    128473355     75.98%     75.98% # Class of committed instruction (Count)
system.cpu.commit.committedInstType_0::IntMult         4774      0.00%     75.98% # Class of committed instruction (Count)
system.cpu.commit.committedInstType_0::IntDiv         3673      0.00%     75.98% # Class of committed instruction (Count)
system.cpu.commit.committedInstType_0::FloatAdd        24415      0.01%     76.00% # Class of committed instruction (Count)
system.cpu.commit.committedInstType_0::FloatCmp            0      0.00%     76.00% # Class of committed instruction (Count)
system.cpu.commit.committedInstType_0::FloatCvt          416      0.00%     76.00% # Class of committed instruction (Count)
system.cpu.commit.committedInstType_0::FloatMult            0      0.00%     76.00% # Class of committed instruction (Count)
system.cpu.commit.committedInstType_0::FloatMultAcc            0      0.00%     76.00% # Class of committed instruction (Count)
system.cpu.commit.committedInstType_0::FloatDiv            0      0.00%     76.00% # Class of committed instruction (Count)
system.cpu.commit.committedInstType_0::FloatMisc            0      0.00%     76.00% # Class of committed instruction (Count)
system.cpu.commit.committedInstType_0::FloatSqrt            0      0.00%     76.00% # Class of committed instruction (Count)
system.cpu.commit.committedInstType_0::SimdAdd           16      0.00%     76.00% # Class of committed instruction (Count)
system.cpu.commit.committedInstType_0::SimdAddAcc            0      0.00%     76.00% # Class of committed instruction (Count)
system.cpu.commit.committedInstType_0::SimdAlu        10254      0.01%     76.00% # Class of committed instruction (Count)
system.cpu.commit.committedInstType_0::SimdCmp            0      0.00%     76.00% # Class of committed instruction (Count)
system.cpu.commit.committedInstType_0::SimdCvt          328      0.00%     76.00% # Class of committed instruction (Count)
system.cpu.commit.committedInstType_0::SimdMisc         8070      0.00%     76.01% # Class of committed instruction (Count)
system.cpu.commit.committedInstType_0::SimdMult            0      0.00%     76.01% # Class of committed instruction (Count)
system.cpu.commit.committedInstType_0::SimdMultAcc            0      0.00%     76.01% # Class of committed instruction (Count)
system.cpu.commit.committedInstType_0::SimdMatMultAcc            0      0.00%     76.01% # Class of committed instruction (Count)
system.cpu.commit.committedInstType_0::SimdShift            0      0.00%     76.01% # Class of committed instruction (Count)
system.cpu.commit.committedInstType_0::SimdShiftAcc            0      0.00%     76.01% # Class of committed instruction (Count)
system.cpu.commit.committedInstType_0::SimdDiv            0      0.00%     76.01% # Class of committed instruction (Count)
system.cpu.commit.committedInstType_0::SimdSqrt            0      0.00%     76.01% # Class of committed instruction (Count)
system.cpu.commit.committedInstType_0::SimdFloatAdd         4608      0.00%     76.01% # Class of committed instruction (Count)
system.cpu.commit.committedInstType_0::SimdFloatAlu            0      0.00%     76.01% # Class of committed instruction (Count)
system.cpu.commit.committedInstType_0::SimdFloatCmp            0      0.00%     76.01% # Class of committed instruction (Count)
system.cpu.commit.committedInstType_0::SimdFloatCvt        10368      0.01%     76.02% # Class of committed instruction (Count)
system.cpu.commit.committedInstType_0::SimdFloatDiv         2304      0.00%     76.02% # Class of committed instruction (Count)
system.cpu.commit.committedInstType_0::SimdFloatMisc            0      0.00%     76.02% # Class of committed instruction (Count)
system.cpu.commit.committedInstType_0::SimdFloatMult         2688      0.00%     76.02% # Class of committed instruction (Count)
system.cpu.commit.committedInstType_0::SimdFloatMultAcc            0      0.00%     76.02% # Class of committed instruction (Count)
system.cpu.commit.committedInstType_0::SimdFloatMatMultAcc            0      0.00%     76.02% # Class of committed instruction (Count)
system.cpu.commit.committedInstType_0::SimdFloatSqrt            0      0.00%     76.02% # Class of committed instruction (Count)
system.cpu.commit.committedInstType_0::SimdReduceAdd            0      0.00%     76.02% # Class of committed instruction (Count)
system.cpu.commit.committedInstType_0::SimdReduceAlu            0      0.00%     76.02% # Class of committed instruction (Count)
system.cpu.commit.committedInstType_0::SimdReduceCmp            0      0.00%     76.02% # Class of committed instruction (Count)
system.cpu.commit.committedInstType_0::SimdFloatReduceAdd            0      0.00%     76.02% # Class of committed instruction (Count)
system.cpu.commit.committedInstType_0::SimdFloatReduceCmp            0      0.00%     76.02% # Class of committed instruction (Count)
system.cpu.commit.committedInstType_0::SimdAes            0      0.00%     76.02% # Class of committed instruction (Count)
system.cpu.commit.committedInstType_0::SimdAesMix            0      0.00%     76.02% # Class of committed instruction (Count)
system.cpu.commit.committedInstType_0::SimdSha1Hash            0      0.00%     76.02% # Class of committed instruction (Count)
system.cpu.commit.committedInstType_0::SimdSha1Hash2            0      0.00%     76.02% # Class of committed instruction (Count)
system.cpu.commit.committedInstType_0::SimdSha256Hash            0      0.00%     76.02% # Class of committed instruction (Count)
system.cpu.commit.committedInstType_0::SimdSha256Hash2            0      0.00%     76.02% # Class of committed instruction (Count)
system.cpu.commit.committedInstType_0::SimdShaSigma2            0      0.00%     76.02% # Class of committed instruction (Count)
system.cpu.commit.committedInstType_0::SimdShaSigma3            0      0.00%     76.02% # Class of committed instruction (Count)
system.cpu.commit.committedInstType_0::SimdPredAlu            0      0.00%     76.02% # Class of committed instruction (Count)
system.cpu.commit.committedInstType_0::Matrix            0      0.00%     76.02% # Class of committed instruction (Count)
system.cpu.commit.committedInstType_0::MatrixMov            0      0.00%     76.02% # Class of committed instruction (Count)
system.cpu.commit.committedInstType_0::MatrixOP            0      0.00%     76.02% # Class of committed instruction (Count)
system.cpu.commit.committedInstType_0::MemRead     26217026     15.50%     91.52% # Class of committed instruction (Count)
system.cpu.commit.committedInstType_0::MemWrite     14291591      8.45%     99.98% # Class of committed instruction (Count)
system.cpu.commit.committedInstType_0::FloatMemRead        28033      0.02%     99.99% # Class of committed instruction (Count)
system.cpu.commit.committedInstType_0::FloatMemWrite        12358      0.01%    100.00% # Class of committed instruction (Count)
system.cpu.commit.committedInstType_0::IprAccess            0      0.00%    100.00% # Class of committed instruction (Count)
system.cpu.commit.committedInstType_0::InstPrefetch            0      0.00%    100.00% # Class of committed instruction (Count)
system.cpu.commit.committedInstType_0::SimdUnitStrideLoad            0      0.00%    100.00% # Class of committed instruction (Count)
system.cpu.commit.committedInstType_0::SimdUnitStrideStore            0      0.00%    100.00% # Class of committed instruction (Count)
system.cpu.commit.committedInstType_0::SimdUnitStrideMaskLoad            0      0.00%    100.00% # Class of committed instruction (Count)
system.cpu.commit.committedInstType_0::SimdUnitStrideMaskStore            0      0.00%    100.00% # Class of committed instruction (Count)
system.cpu.commit.committedInstType_0::SimdStridedLoad            0      0.00%    100.00% # Class of committed instruction (Count)
system.cpu.commit.committedInstType_0::SimdStridedStore            0      0.00%    100.00% # Class of committed instruction (Count)
system.cpu.commit.committedInstType_0::SimdIndexedLoad            0      0.00%    100.00% # Class of committed instruction (Count)
system.cpu.commit.committedInstType_0::SimdIndexedStore            0      0.00%    100.00% # Class of committed instruction (Count)
system.cpu.commit.committedInstType_0::SimdWholeRegisterLoad            0      0.00%    100.00% # Class of committed instruction (Count)
system.cpu.commit.committedInstType_0::SimdWholeRegisterStore            0      0.00%    100.00% # Class of committed instruction (Count)
system.cpu.commit.committedInstType_0::SimdUnitStrideFaultOnlyFirstLoad            0      0.00%    100.00% # Class of committed instruction (Count)
system.cpu.commit.committedInstType_0::SimdUnitStrideSegmentedLoad            0      0.00%    100.00% # Class of committed instruction (Count)
system.cpu.commit.committedInstType_0::SimdUnitStrideSegmentedStore            0      0.00%    100.00% # Class of committed instruction (Count)
system.cpu.commit.committedInstType_0::SimdExt            0      0.00%    100.00% # Class of committed instruction (Count)
system.cpu.commit.committedInstType_0::SimdFloatExt            0      0.00%    100.00% # Class of committed instruction (Count)
system.cpu.commit.committedInstType_0::SimdConfig            0      0.00%    100.00% # Class of committed instruction (Count)
system.cpu.commit.committedInstType_0::total    169096680                       # Class of committed instruction (Count)
system.cpu.commit.commitEligibleSamples       9552176                       # number cycles where commit BW limit reached (Cycle)
system.cpu.commitStats0.numInsts             85804688                       # Number of instructions committed (thread level) (Count)
system.cpu.commitStats0.numOps              169096680                       # Number of ops (including micro ops) committed (thread level) (Count)
system.cpu.commitStats0.numInstsNotNOP       85804688                       # Number of instructions committed excluding NOPs or prefetches (Count)
system.cpu.commitStats0.numOpsNotNOP        169096680                       # Number of Ops (including micro ops) Simulated (Count)
system.cpu.commitStats0.cpi                  7.277558                       # CPI: cycles per instruction (thread level) ((Cycle/Count))
system.cpu.commitStats0.ipc                  0.137409                       # IPC: instructions per cycle (thread level) ((Count/Cycle))
system.cpu.commitStats0.numMemRefs           40549008                       # Number of memory references committed (Count)
system.cpu.commitStats0.numFpInsts             103911                       # Number of float instructions (Count)
system.cpu.commitStats0.numIntInsts         169030951                       # Number of integer instructions (Count)
system.cpu.commitStats0.numLoadInsts         26245059                       # Number of load instructions (Count)
system.cpu.commitStats0.numStoreInsts        14303949                       # Number of store instructions (Count)
system.cpu.commitStats0.numVecInsts                 0                       # Number of vector instructions (Count)
system.cpu.commitStats0.committedInstType::No_OpClass         2403      0.00%      0.00% # Class of committed instruction. (Count)
system.cpu.commitStats0.committedInstType::IntAlu    128473355     75.98%     75.98% # Class of committed instruction. (Count)
system.cpu.commitStats0.committedInstType::IntMult         4774      0.00%     75.98% # Class of committed instruction. (Count)
system.cpu.commitStats0.committedInstType::IntDiv         3673      0.00%     75.98% # Class of committed instruction. (Count)
system.cpu.commitStats0.committedInstType::FloatAdd        24415      0.01%     76.00% # Class of committed instruction. (Count)
system.cpu.commitStats0.committedInstType::FloatCmp            0      0.00%     76.00% # Class of committed instruction. (Count)
system.cpu.commitStats0.committedInstType::FloatCvt          416      0.00%     76.00% # Class of committed instruction. (Count)
system.cpu.commitStats0.committedInstType::FloatMult            0      0.00%     76.00% # Class of committed instruction. (Count)
system.cpu.commitStats0.committedInstType::FloatMultAcc            0      0.00%     76.00% # Class of committed instruction. (Count)
system.cpu.commitStats0.committedInstType::FloatDiv            0      0.00%     76.00% # Class of committed instruction. (Count)
system.cpu.commitStats0.committedInstType::FloatMisc            0      0.00%     76.00% # Class of committed instruction. (Count)
system.cpu.commitStats0.committedInstType::FloatSqrt            0      0.00%     76.00% # Class of committed instruction. (Count)
system.cpu.commitStats0.committedInstType::SimdAdd           16      0.00%     76.00% # Class of committed instruction. (Count)
system.cpu.commitStats0.committedInstType::SimdAddAcc            0      0.00%     76.00% # Class of committed instruction. (Count)
system.cpu.commitStats0.committedInstType::SimdAlu        10254      0.01%     76.00% # Class of committed instruction. (Count)
system.cpu.commitStats0.committedInstType::SimdCmp            0      0.00%     76.00% # Class of committed instruction. (Count)
system.cpu.commitStats0.committedInstType::SimdCvt          328      0.00%     76.00% # Class of committed instruction. (Count)
system.cpu.commitStats0.committedInstType::SimdMisc         8070      0.00%     76.01% # Class of committed instruction. (Count)
system.cpu.commitStats0.committedInstType::SimdMult            0      0.00%     76.01% # Class of committed instruction. (Count)
system.cpu.commitStats0.committedInstType::SimdMultAcc            0      0.00%     76.01% # Class of committed instruction. (Count)
system.cpu.commitStats0.committedInstType::SimdMatMultAcc            0      0.00%     76.01% # Class of committed instruction. (Count)
system.cpu.commitStats0.committedInstType::SimdShift            0      0.00%     76.01% # Class of committed instruction. (Count)
system.cpu.commitStats0.committedInstType::SimdShiftAcc            0      0.00%     76.01% # Class of committed instruction. (Count)
system.cpu.commitStats0.committedInstType::SimdDiv            0      0.00%     76.01% # Class of committed instruction. (Count)
system.cpu.commitStats0.committedInstType::SimdSqrt            0      0.00%     76.01% # Class of committed instruction. (Count)
system.cpu.commitStats0.committedInstType::SimdFloatAdd         4608      0.00%     76.01% # Class of committed instruction. (Count)
system.cpu.commitStats0.committedInstType::SimdFloatAlu            0      0.00%     76.01% # Class of committed instruction. (Count)
system.cpu.commitStats0.committedInstType::SimdFloatCmp            0      0.00%     76.01% # Class of committed instruction. (Count)
system.cpu.commitStats0.committedInstType::SimdFloatCvt        10368      0.01%     76.02% # Class of committed instruction. (Count)
system.cpu.commitStats0.committedInstType::SimdFloatDiv         2304      0.00%     76.02% # Class of committed instruction. (Count)
system.cpu.commitStats0.committedInstType::SimdFloatMisc            0      0.00%     76.02% # Class of committed instruction. (Count)
system.cpu.commitStats0.committedInstType::SimdFloatMult         2688      0.00%     76.02% # Class of committed instruction. (Count)
system.cpu.commitStats0.committedInstType::SimdFloatMultAcc            0      0.00%     76.02% # Class of committed instruction. (Count)
system.cpu.commitStats0.committedInstType::SimdFloatMatMultAcc            0      0.00%     76.02% # Class of committed instruction. (Count)
system.cpu.commitStats0.committedInstType::SimdFloatSqrt            0      0.00%     76.02% # Class of committed instruction. (Count)
system.cpu.commitStats0.committedInstType::SimdReduceAdd            0      0.00%     76.02% # Class of committed instruction. (Count)
system.cpu.commitStats0.committedInstType::SimdReduceAlu            0      0.00%     76.02% # Class of committed instruction. (Count)
system.cpu.commitStats0.committedInstType::SimdReduceCmp            0      0.00%     76.02% # Class of committed instruction. (Count)
system.cpu.commitStats0.committedInstType::SimdFloatReduceAdd            0      0.00%     76.02% # Class of committed instruction. (Count)
system.cpu.commitStats0.committedInstType::SimdFloatReduceCmp            0      0.00%     76.02% # Class of committed instruction. (Count)
system.cpu.commitStats0.committedInstType::SimdAes            0      0.00%     76.02% # Class of committed instruction. (Count)
system.cpu.commitStats0.committedInstType::SimdAesMix            0      0.00%     76.02% # Class of committed instruction. (Count)
system.cpu.commitStats0.committedInstType::SimdSha1Hash            0      0.00%     76.02% # Class of committed instruction. (Count)
system.cpu.commitStats0.committedInstType::SimdSha1Hash2            0      0.00%     76.02% # Class of committed instruction. (Count)
system.cpu.commitStats0.committedInstType::SimdSha256Hash            0      0.00%     76.02% # Class of committed instruction. (Count)
system.cpu.commitStats0.committedInstType::SimdSha256Hash2            0      0.00%     76.02% # Class of committed instruction. (Count)
system.cpu.commitStats0.committedInstType::SimdShaSigma2            0      0.00%     76.02% # Class of committed instruction. (Count)
system.cpu.commitStats0.committedInstType::SimdShaSigma3            0      0.00%     76.02% # Class of committed instruction. (Count)
system.cpu.commitStats0.committedInstType::SimdPredAlu            0      0.00%     76.02% # Class of committed instruction. (Count)
system.cpu.commitStats0.committedInstType::Matrix            0      0.00%     76.02% # Class of committed instruction. (Count)
system.cpu.commitStats0.committedInstType::MatrixMov            0      0.00%     76.02% # Class of committed instruction. (Count)
system.cpu.commitStats0.committedInstType::MatrixOP            0      0.00%     76.02% # Class of committed instruction. (Count)
system.cpu.commitStats0.committedInstType::MemRead     26217026     15.50%     91.52% # Class of committed instruction. (Count)
system.cpu.commitStats0.committedInstType::MemWrite     14291591      8.45%     99.98% # Class of committed instruction. (Count)
system.cpu.commitStats0.committedInstType::FloatMemRead        28033      0.02%     99.99% # Class of committed instruction. (Count)
system.cpu.commitStats0.committedInstType::FloatMemWrite        12358      0.01%    100.00% # Class of committed instruction. (Count)
system.cpu.commitStats0.committedInstType::IprAccess            0      0.00%    100.00% # Class of committed instruction. (Count)
system.cpu.commitStats0.committedInstType::InstPrefetch            0      0.00%    100.00% # Class of committed instruction. (Count)
system.cpu.commitStats0.committedInstType::SimdUnitStrideLoad            0      0.00%    100.00% # Class of committed instruction. (Count)
system.cpu.commitStats0.committedInstType::SimdUnitStrideStore            0      0.00%    100.00% # Class of committed instruction. (Count)
system.cpu.commitStats0.committedInstType::SimdUnitStrideMaskLoad            0      0.00%    100.00% # Class of committed instruction. (Count)
system.cpu.commitStats0.committedInstType::SimdUnitStrideMaskStore            0      0.00%    100.00% # Class of committed instruction. (Count)
system.cpu.commitStats0.committedInstType::SimdStridedLoad            0      0.00%    100.00% # Class of committed instruction. (Count)
system.cpu.commitStats0.committedInstType::SimdStridedStore            0      0.00%    100.00% # Class of committed instruction. (Count)
system.cpu.commitStats0.committedInstType::SimdIndexedLoad            0      0.00%    100.00% # Class of committed instruction. (Count)
system.cpu.commitStats0.committedInstType::SimdIndexedStore            0      0.00%    100.00% # Class of committed instruction. (Count)
system.cpu.commitStats0.committedInstType::SimdWholeRegisterLoad            0      0.00%    100.00% # Class of committed instruction. (Count)
system.cpu.commitStats0.committedInstType::SimdWholeRegisterStore            0      0.00%    100.00% # Class of committed instruction. (Count)
system.cpu.commitStats0.committedInstType::SimdUnitStrideFaultOnlyFirstLoad            0      0.00%    100.00% # Class of committed instruction. (Count)
system.cpu.commitStats0.committedInstType::SimdUnitStrideSegmentedLoad            0      0.00%    100.00% # Class of committed instruction. (Count)
system.cpu.commitStats0.committedInstType::SimdUnitStrideSegmentedStore            0      0.00%    100.00% # Class of committed instruction. (Count)
system.cpu.commitStats0.committedInstType::SimdExt            0      0.00%    100.00% # Class of committed instruction. (Count)
system.cpu.commitStats0.committedInstType::SimdFloatExt            0      0.00%    100.00% # Class of committed instruction. (Count)
system.cpu.commitStats0.committedInstType::SimdConfig            0      0.00%    100.00% # Class of committed instruction. (Count)
system.cpu.commitStats0.committedInstType::total    169096680                       # Class of committed instruction. (Count)
system.cpu.commitStats0.committedControl::IsControl     19052465                       # Class of control type instructions committed (Count)
system.cpu.commitStats0.committedControl::IsDirectControl     14305803                       # Class of control type instructions committed (Count)
system.cpu.commitStats0.committedControl::IsIndirectControl      4746662                       # Class of control type instructions committed (Count)
system.cpu.commitStats0.committedControl::IsCondControl     10735293                       # Class of control type instructions committed (Count)
system.cpu.commitStats0.committedControl::IsUncondControl      8317172                       # Class of control type instructions committed (Count)
system.cpu.commitStats0.committedControl::IsCall      3563397                       # Class of control type instructions committed (Count)
system.cpu.commitStats0.committedControl::IsReturn      3563393                       # Class of control type instructions committed (Count)
system.cpu.dcache.demandHits::cpu.data       25110314                       # number of demand (read+write) hits (Count)
system.cpu.dcache.demandHits::total          25110314                       # number of demand (read+write) hits (Count)
system.cpu.dcache.overallHits::cpu.data      25110314                       # number of overall hits (Count)
system.cpu.dcache.overallHits::total         25110314                       # number of overall hits (Count)
system.cpu.dcache.demandMisses::cpu.data        24947                       # number of demand (read+write) misses (Count)
system.cpu.dcache.demandMisses::total           24947                       # number of demand (read+write) misses (Count)
system.cpu.dcache.overallMisses::cpu.data        24947                       # number of overall misses (Count)
system.cpu.dcache.overallMisses::total          24947                       # number of overall misses (Count)
system.cpu.dcache.demandMissLatency::cpu.data  10212125464                       # number of demand (read+write) miss ticks (Tick)
system.cpu.dcache.demandMissLatency::total  10212125464                       # number of demand (read+write) miss ticks (Tick)
system.cpu.dcache.overallMissLatency::cpu.data  10212125464                       # number of overall miss ticks (Tick)
system.cpu.dcache.overallMissLatency::total  10212125464                       # number of overall miss ticks (Tick)
system.cpu.dcache.demandAccesses::cpu.data     25135261                       # number of demand (read+write) accesses (Count)
system.cpu.dcache.demandAccesses::total      25135261                       # number of demand (read+write) accesses (Count)
system.cpu.dcache.overallAccesses::cpu.data     25135261                       # number of overall (read+write) accesses (Count)
system.cpu.dcache.overallAccesses::total     25135261                       # number of overall (read+write) accesses (Count)
system.cpu.dcache.demandMissRate::cpu.data     0.000993                       # miss rate for demand accesses (Ratio)
system.cpu.dcache.demandMissRate::total      0.000993                       # miss rate for demand accesses (Ratio)
system.cpu.dcache.overallMissRate::cpu.data     0.000993                       # miss rate for overall accesses (Ratio)
system.cpu.dcache.overallMissRate::total     0.000993                       # miss rate for overall accesses (Ratio)
system.cpu.dcache.demandAvgMissLatency::cpu.data 409352.846595                       # average overall miss latency in ticks ((Tick/Count))
system.cpu.dcache.demandAvgMissLatency::total 409352.846595                       # average overall miss latency in ticks ((Tick/Count))
system.cpu.dcache.overallAvgMissLatency::cpu.data 409352.846595                       # average overall miss latency ((Tick/Count))
system.cpu.dcache.overallAvgMissLatency::total 409352.846595                       # average overall miss latency ((Tick/Count))
system.cpu.dcache.blockedCycles::no_mshrs       737283                       # number of cycles access was blocked (Cycle)
system.cpu.dcache.blockedCycles::no_targets        19251                       # number of cycles access was blocked (Cycle)
system.cpu.dcache.blockedCauses::no_mshrs          731                       # number of times access was blocked (Count)
system.cpu.dcache.blockedCauses::no_targets           38                       # number of times access was blocked (Count)
system.cpu.dcache.avgBlocked::no_mshrs    1008.595075                       # average number of cycles each access was blocked ((Cycle/Count))
system.cpu.dcache.avgBlocked::no_targets   506.605263                       # average number of cycles each access was blocked ((Cycle/Count))
system.cpu.dcache.writebacks::writebacks         2444                       # number of writebacks (Count)
system.cpu.dcache.writebacks::total              2444                       # number of writebacks (Count)
system.cpu.dcache.demandMshrHits::cpu.data        17528                       # number of demand (read+write) MSHR hits (Count)
system.cpu.dcache.demandMshrHits::total         17528                       # number of demand (read+write) MSHR hits (Count)
system.cpu.dcache.overallMshrHits::cpu.data        17528                       # number of overall MSHR hits (Count)
[...]
system.l2.ReadSharedReq.avgMissLatency::cpu.data 676857.048428                       # average ReadSharedReq miss latency ((Tick/Count))
system.l2.ReadSharedReq.avgMissLatency::total 676857.048428                       # average ReadSharedReq miss latency ((Tick/Count))
system.l2.ReadSharedReq.mshrMisses::cpu.data         3531                       # number of ReadSharedReq MSHR misses (Count)
system.l2.ReadSharedReq.mshrMisses::total         3531                       # number of ReadSharedReq MSHR misses (Count)
system.l2.ReadSharedReq.mshrMissLatency::cpu.data   2367324091                       # number of ReadSharedReq MSHR miss ticks (Tick)
system.l2.ReadSharedReq.mshrMissLatency::total   2367324091                       # number of ReadSharedReq MSHR miss ticks (Tick)
system.l2.ReadSharedReq.mshrMissRate::cpu.data     0.633136                       # mshr miss rate for ReadSharedReq accesses (Ratio)
system.l2.ReadSharedReq.mshrMissRate::total     0.633136                       # mshr miss rate for ReadSharedReq accesses (Ratio)
system.l2.ReadSharedReq.avgMshrMissLatency::cpu.data 670440.127726                       # average ReadSharedReq mshr miss latency ((Tick/Count))
system.l2.ReadSharedReq.avgMshrMissLatency::total 670440.127726                       # average ReadSharedReq mshr miss latency ((Tick/Count))
system.l2.UpgradeReq.hits::cpu.data                 3                       # number of UpgradeReq hits (Count)
system.l2.UpgradeReq.hits::total                    3                       # number of UpgradeReq hits (Count)
system.l2.UpgradeReq.accesses::cpu.data             3                       # number of UpgradeReq accesses(hits+misses) (Count)
system.l2.UpgradeReq.accesses::total                3                       # number of UpgradeReq accesses(hits+misses) (Count)
system.l2.WriteReq.mshrUncacheable::cpu.data      1182338                       # number of WriteReq MSHR uncacheable (Count)
system.l2.WriteReq.mshrUncacheable::total      1182338                       # number of WriteReq MSHR uncacheable (Count)
system.l2.WritebackClean.hits::writebacks         2049                       # number of WritebackClean hits (Count)
system.l2.WritebackClean.hits::total             2049                       # number of WritebackClean hits (Count)
system.l2.WritebackClean.accesses::writebacks         2049                       # number of WritebackClean accesses(hits+misses) (Count)
system.l2.WritebackClean.accesses::total         2049                       # number of WritebackClean accesses(hits+misses) (Count)
system.l2.WritebackDirty.hits::writebacks         2444                       # number of WritebackDirty hits (Count)
system.l2.WritebackDirty.hits::total             2444                       # number of WritebackDirty hits (Count)
system.l2.WritebackDirty.accesses::writebacks         2444                       # number of WritebackDirty accesses(hits+misses) (Count)
system.l2.WritebackDirty.accesses::total         2444                       # number of WritebackDirty accesses(hits+misses) (Count)
system.l2.power_state.pwrStateResidencyTicks::UNDEFINED 195452396150                       # Cumulative time (in ticks) in various power states (Tick)
system.l2.tags.tagsInUse                  6578.299520                       # Average ticks per tags in use ((Tick/Count))
system.l2.tags.totalRefs                        18932                       # Total number of references to valid blocks. (Count)
system.l2.tags.sampledRefs                       7234                       # Sample count of references to valid blocks. (Count)
system.l2.tags.avgRefs                       2.617086                       # Average number of references to valid blocks. ((Count/Count))
system.l2.tags.warmupTick                      430000                       # The tick when the warmup percentage was hit. (Tick)
system.l2.tags.occupancies::cpu.inst      1791.274209                       # Average occupied blocks per tick, per requestor ((Count/Tick))
system.l2.tags.occupancies::cpu.data      4787.025311                       # Average occupied blocks per tick, per requestor ((Count/Tick))
system.l2.tags.avgOccs::cpu.inst             0.054665                       # Average percentage of cache occupancy ((Ratio/Tick))
system.l2.tags.avgOccs::cpu.data             0.146088                       # Average percentage of cache occupancy ((Ratio/Tick))
system.l2.tags.avgOccs::total                0.200754                       # Average percentage of cache occupancy ((Ratio/Tick))
system.l2.tags.occupanciesTaskId::1024           7233                       # Occupied blocks per task id (Count)
system.l2.tags.ageTaskId_1024::0                   32                       # Occupied blocks per task id, per block age (Count)
system.l2.tags.ageTaskId_1024::1                  119                       # Occupied blocks per task id, per block age (Count)
system.l2.tags.ageTaskId_1024::2                    2                       # Occupied blocks per task id, per block age (Count)
system.l2.tags.ageTaskId_1024::3                  468                       # Occupied blocks per task id, per block age (Count)
system.l2.tags.ageTaskId_1024::4                 6612                       # Occupied blocks per task id, per block age (Count)
system.l2.tags.ratioOccsTaskId::1024         0.220734                       # Ratio of occupied blocks and all blocks, per task id (Ratio)
system.l2.tags.tagAccesses                     158706                       # Number of tag accesses (Count)
system.l2.tags.dataAccesses                    158706                       # Number of data accesses (Count)
system.l2.tags.power_state.pwrStateResidencyTicks::UNDEFINED 195452396150                       # Cumulative time (in ticks) in various power states (Tick)
system.mem_ctrls.bytesRead::cpu.inst           131904                       # Number of bytes read from this memory (Byte)
system.mem_ctrls.bytesRead::cpu.data           332992                       # Number of bytes read from this memory (Byte)
system.mem_ctrls.bytesRead::total              464896                       # Number of bytes read from this memory (Byte)
system.mem_ctrls.bytesInstRead::cpu.inst       131904                       # Number of instructions bytes read from this memory (Byte)
system.mem_ctrls.bytesInstRead::total          131904                       # Number of instructions bytes read from this memory (Byte)
system.mem_ctrls.bytesWritten::cpu.data       1182338                       # Number of bytes written to this memory (Byte)
system.mem_ctrls.bytesWritten::total          1182338                       # Number of bytes written to this memory (Byte)
system.mem_ctrls.numReads::cpu.inst              2061                       # Number of read requests responded to by this memory (Count)
system.mem_ctrls.numReads::cpu.data              7093                       # Number of read requests responded to by this memory (Count)
system.mem_ctrls.numReads::total                 9154                       # Number of read requests responded to by this memory (Count)
system.mem_ctrls.numWrites::cpu.data          1182338                       # Number of write requests responded to by this memory (Count)
system.mem_ctrls.numWrites::total             1182338                       # Number of write requests responded to by this memory (Count)
system.mem_ctrls.bwRead::cpu.inst              674865                       # Total read bandwidth from this memory ((Byte/Second))
system.mem_ctrls.bwRead::cpu.data             1703699                       # Total read bandwidth from this memory ((Byte/Second))
system.mem_ctrls.bwRead::total                2378564                       # Total read bandwidth from this memory ((Byte/Second))
system.mem_ctrls.bwInstRead::cpu.inst          674865                       # Instruction read bandwidth from this memory ((Byte/Second))
system.mem_ctrls.bwInstRead::total             674865                       # Instruction read bandwidth from this memory ((Byte/Second))
system.mem_ctrls.bwWrite::cpu.data            6049238                       # Write bandwidth from this memory ((Byte/Second))
system.mem_ctrls.bwWrite::total               6049238                       # Write bandwidth from this memory ((Byte/Second))
system.mem_ctrls.bwTotal::cpu.inst             674865                       # Total bandwidth to/from this memory ((Byte/Second))
system.mem_ctrls.bwTotal::cpu.data            7752936                       # Total bandwidth to/from this memory ((Byte/Second))
system.mem_ctrls.bwTotal::total               8427802                       # Total bandwidth to/from this memory ((Byte/Second))
system.mem_ctrls.power_state.pwrStateResidencyTicks::UNDEFINED 195452396150                       # Cumulative time (in ticks) in various power states (Tick)
system.membus.transDist::ReadReq                 1920                       # Transaction distribution (Count)
system.membus.transDist::ReadResp                7512                       # Transaction distribution (Count)
system.membus.transDist::WriteReq             1182338                       # Transaction distribution (Count)
system.membus.transDist::WriteResp            1182338                       # Transaction distribution (Count)
system.membus.transDist::CleanEvict                 1                       # Transaction distribution (Count)
system.membus.transDist::ReadExReq               1642                       # Transaction distribution (Count)
system.membus.transDist::ReadExResp              1642                       # Transaction distribution (Count)
system.membus.transDist::ReadSharedReq           5592                       # Transaction distribution (Count)
system.membus.pktCount_system.l2.mem_side_port::system.mem_ctrls.port      2382985                       # Packet count per connected requestor and responder (Count)
system.membus.pktCount_system.l2.mem_side_port::total      2382985                       # Packet count per connected requestor and responder (Count)
system.membus.pktCount::total                 2382985                       # Packet count per connected requestor and responder (Count)
system.membus.pktSize_system.l2.mem_side_port::system.mem_ctrls.port      1647234                       # Cumulative packet size per connected requestor and responder (Byte)
system.membus.pktSize_system.l2.mem_side_port::total      1647234                       # Cumulative packet size per connected requestor and responder (Byte)
system.membus.pktSize::total                  1647234                       # Cumulative packet size per connected requestor and responder (Byte)
system.membus.snoops                                0                       # Total snoops (Count)
system.membus.snoopTraffic                          0                       # Total snoop traffic (Byte)
system.membus.snoopFanout::samples            2373673                       # Request fanout histogram (Count)
system.membus.snoopFanout::mean                     0                       # Request fanout histogram (Count)
system.membus.snoopFanout::stdev                    0                       # Request fanout histogram (Count)
system.membus.snoopFanout::underflows               0      0.00%      0.00% # Request fanout histogram (Count)
system.membus.snoopFanout::0                  2373673    100.00%    100.00% # Request fanout histogram (Count)
system.membus.snoopFanout::1                        0      0.00%    100.00% # Request fanout histogram (Count)
system.membus.snoopFanout::overflows                0      0.00%    100.00% # Request fanout histogram (Count)
system.membus.snoopFanout::min_value                0                       # Request fanout histogram (Count)
system.membus.snoopFanout::max_value                0                       # Request fanout histogram (Count)
system.membus.snoopFanout::total              2373673                       # Request fanout histogram (Count)
system.membus.power_state.pwrStateResidencyTicks::UNDEFINED 195452396150                       # Cumulative time (in ticks) in various power states (Tick)
system.membus.reqLayer2.occupancy          9899019876                       # Layer occupancy (ticks) (Tick)
system.membus.reqLayer2.utilization               0.1                       # Layer utilization (Ratio)
system.membus.respLayer1.occupancy         3549965969                       # Layer occupancy (ticks) (Tick)
system.membus.respLayer1.utilization              0.0                       # Layer utilization (Ratio)
system.membus.snoop_filter.totRequests           7239                       # Total number of requests made to the snoop filter. (Count)
system.membus.snoop_filter.hitSingleRequests            2                       # Number of requests hitting in the snoop filter with a single holder of the requested data. (Count)
system.membus.snoop_filter.hitMultiRequests            0                       # Number of requests hitting in the snoop filter with multiple (>1) holders of the requested data. (Count)
system.membus.snoop_filter.totSnoops                0                       # Total number of snoops made to the snoop filter. (Count)
system.membus.snoop_filter.hitSingleSnoops            0                       # Number of snoops hitting in the snoop filter with a single holder of the requested data. (Count)
system.membus.snoop_filter.hitMultiSnoops            0                       # Number of snoops hitting in the snoop filter with multiple (>1) holders of the requested data. (Count)
system.tol2bus.transDist::ReadReq                1920                       # Transaction distribution (Count)
system.tol2bus.transDist::ReadResp              10064                       # Transaction distribution (Count)
system.tol2bus.transDist::WriteReq            1182338                       # Transaction distribution (Count)
system.tol2bus.transDist::WriteResp           1182338                       # Transaction distribution (Count)
system.tol2bus.transDist::WritebackDirty         2444                       # Transaction distribution (Count)
system.tol2bus.transDist::WritebackClean         2053                       # Transaction distribution (Count)
system.tol2bus.transDist::CleanEvict             4461                       # Transaction distribution (Count)
system.tol2bus.transDist::UpgradeReq                3                       # Transaction distribution (Count)
system.tol2bus.transDist::UpgradeResp               3                       # Transaction distribution (Count)
system.tol2bus.transDist::ReadExReq              1839                       # Transaction distribution (Count)
system.tol2bus.transDist::ReadExResp             1839                       # Transaction distribution (Count)
system.tol2bus.transDist::ReadCleanReq           2568                       # Transaction distribution (Count)
system.tol2bus.transDist::ReadSharedReq          5577                       # Transaction distribution (Count)
system.tol2bus.pktCount_system.cpu.icache.mem_side_port::system.l2.cpu_side_port         7183                       # Packet count per connected requestor and responder (Count)
system.tol2bus.pktCount_system.cpu.dcache.mem_side_port::system.l2.cpu_side_port      2390258                       # Packet count per connected requestor and responder (Count)
system.tol2bus.pktCount::total                2397441                       # Packet count per connected requestor and responder (Count)
system.tol2bus.pktSize_system.cpu.icache.mem_side_port::system.l2.cpu_side_port       295360                       # Cumulative packet size per connected requestor and responder (Byte)
system.tol2bus.pktSize_system.cpu.dcache.mem_side_port::system.l2.cpu_side_port      1815298                       # Cumulative packet size per connected requestor and responder (Byte)
system.tol2bus.pktSize::total                 2110658                       # Cumulative packet size per connected requestor and responder (Byte)
system.tol2bus.snoops                               6                       # Total snoops (Count)
system.tol2bus.snoopTraffic                       320                       # Total snoop traffic (Byte)
system.tol2bus.snoopFanout::samples           1194246                       # Request fanout histogram (Count)
system.tol2bus.snoopFanout::mean             0.000011                       # Request fanout histogram (Count)
system.tol2bus.snoopFanout::stdev            0.003299                       # Request fanout histogram (Count)
system.tol2bus.snoopFanout::underflows              0      0.00%      0.00% # Request fanout histogram (Count)
system.tol2bus.snoopFanout::0                 1194233    100.00%    100.00% # Request fanout histogram (Count)
system.tol2bus.snoopFanout::1                      13      0.00%    100.00% # Request fanout histogram (Count)
system.tol2bus.snoopFanout::2                       0      0.00%    100.00% # Request fanout histogram (Count)
system.tol2bus.snoopFanout::3                       0      0.00%    100.00% # Request fanout histogram (Count)
system.tol2bus.snoopFanout::4                       0      0.00%    100.00% # Request fanout histogram (Count)
system.tol2bus.snoopFanout::overflows               0      0.00%    100.00% # Request fanout histogram (Count)
system.tol2bus.snoopFanout::min_value               0                       # Request fanout histogram (Count)
system.tol2bus.snoopFanout::max_value               1                       # Request fanout histogram (Count)
system.tol2bus.snoopFanout::total             1194246                       # Request fanout histogram (Count)
system.tol2bus.power_state.pwrStateResidencyTicks::UNDEFINED 195452396150                       # Cumulative time (in ticks) in various power states (Tick)
system.tol2bus.reqLayer0.occupancy          749489142                       # Layer occupancy (ticks) (Tick)
system.tol2bus.reqLayer0.utilization              0.0                       # Layer utilization (Ratio)
system.tol2bus.respLayer0.occupancy           2411973                       # Layer occupancy (ticks) (Tick)
system.tol2bus.respLayer0.utilization             0.0                       # Layer utilization (Ratio)
system.tol2bus.respLayer1.occupancy         378245957                       # Layer occupancy (ticks) (Tick)
system.tol2bus.respLayer1.utilization             0.0                       # Layer utilization (Ratio)
system.tol2bus.snoop_filter.totRequests         18944                       # Total number of requests made to the snoop filter. (Count)
system.tol2bus.snoop_filter.hitSingleRequests         8959                       # Number of requests hitting in the snoop filter with a single holder of the requested data. (Count)
system.tol2bus.snoop_filter.hitMultiRequests           11                       # Number of requests hitting in the snoop filter with multiple (>1) holders of the requested data. (Count)
system.tol2bus.snoop_filter.totSnoops               0                       # Total number of snoops made to the snoop filter. (Count)
system.tol2bus.snoop_filter.hitSingleSnoops            0                       # Number of snoops hitting in the snoop filter with a single holder of the requested data. (Count)
system.tol2bus.snoop_filter.hitMultiSnoops            0                       # Number of snoops hitting in the snoop filter with multiple (>1) holders of the requested data. (Count)
system.voltage_domain.voltage                       1                       # Voltage in Volts (Volt)
system.workload.inst.arm                            0                       # number of arm instructions executed (Count)
system.workload.inst.quiesce                        0                       # number of quiesce instructions executed (Count)

---------- End Simulation Statistics   ----------
