
---------- Begin Simulation Statistics ----------
simSeconds                                   6.572083                       # Number of seconds simulated (Second)
simTicks                                 6572082563354                       # Number of ticks simulated (Tick)
finalTick                                6572082563354                       # Number of ticks from beginning of simulation (restored from checkpoints and never reset) (Tick)
simFreq                                  1000000000000                       # The number of ticks per simulated second ((Tick/Second))
hostSeconds                                  11856.77                       # Real time elapsed on the host (Second)
hostTickRate                                554289223                       # The number of ticks simulated per host second (ticks/s) ((Tick/Second))
hostMemory                                    3593588                       # Number of bytes of host memory used (Byte)
simInsts                                   5850388130                       # Number of instructions simulated (Count)
simOps                                     6347631947                       # Number of ops (including micro ops) simulated (Count)
hostInstRate                                   493422                       # Simulator instruction rate (inst/s) ((Count/Second))
hostOpRate                                     535359                       # Simulator op (including micro ops) rate (op/s) ((Count/Second))
system.clk_domain.clock                          2500                       # Clock period in ticks (Tick)
system.cpu0.numCycles                      7889654938                       # Number of cpu cycles simulated (Cycle)
system.cpu0.cpi                              1.348569                       # CPI: cycles per instruction (core level) ((Cycle/Count))
system.cpu0.ipc                              0.741526                       # IPC: instructions per cycle (core level) ((Count/Cycle))
system.cpu0.numWorkItemsStarted                     0                       # Number of work items this cpu started (Count)
system.cpu0.numWorkItemsCompleted                   0                       # Number of work items this cpu completed (Count)
system.cpu0.branchPred.lookups_0::NoBranch       362550      0.06%      0.06% # Number of BP lookups (Count)
system.cpu0.branchPred.lookups_0::Return    228140488     36.68%     36.74% # Number of BP lookups (Count)
system.cpu0.branchPred.lookups_0::CallDirect    228066863     36.67%     73.41% # Number of BP lookups (Count)
system.cpu0.branchPred.lookups_0::CallIndirect         4007      0.00%     73.41% # Number of BP lookups (Count)
system.cpu0.branchPred.lookups_0::DirectCond    109901536     17.67%     91.08% # Number of BP lookups (Count)
system.cpu0.branchPred.lookups_0::DirectUncond     55445238      8.91%     99.99% # Number of BP lookups (Count)
system.cpu0.branchPred.lookups_0::IndirectCond            4      0.00%     99.99% # Number of BP lookups (Count)
system.cpu0.branchPred.lookups_0::IndirectUncond        62849      0.01%    100.00% # Number of BP lookups (Count)
system.cpu0.branchPred.lookups_0::total     621983535                       # Number of BP lookups (Count)
system.cpu0.branchPred.squashes_0::NoBranch       125787     19.82%     19.82% # Number of branches that got squashed (completely removed) as an earlier branch was mispredicted. (Count)
system.cpu0.branchPred.squashes_0::Return       190465     30.00%     49.82% # Number of branches that got squashed (completely removed) as an earlier branch was mispredicted. (Count)
system.cpu0.branchPred.squashes_0::CallDirect       120191     18.93%     68.75% # Number of branches that got squashed (completely removed) as an earlier branch was mispredicted. (Count)
system.cpu0.branchPred.squashes_0::CallIndirect          101      0.02%     68.77% # Number of branches that got squashed (completely removed) as an earlier branch was mispredicted. (Count)
system.cpu0.branchPred.squashes_0::DirectCond       113852     17.93%     86.70% # Number of branches that got squashed (completely removed) as an earlier branch was mispredicted. (Count)
system.cpu0.branchPred.squashes_0::DirectUncond        84172     13.26%     99.96% # Number of branches that got squashed (completely removed) as an earlier branch was mispredicted. (Count)
system.cpu0.branchPred.squashes_0::IndirectCond            4      0.00%     99.96% # Number of branches that got squashed (completely removed) as an earlier branch was mispredicted. (Count)
system.cpu0.branchPred.squashes_0::IndirectUncond          232      0.04%    100.00% # Number of branches that got squashed (completely removed) as an earlier branch was mispredicted. (Count)
system.cpu0.branchPred.squashes_0::total       634804                       # Number of branches that got squashed (completely removed) as an earlier branch was mispredicted. (Count)
system.cpu0.branchPred.corrected_0::NoBranch          371      0.14%      0.14% # Number of branches that got corrected but not yet commited. Branches get corrected by decode or after execute. Also a branch misprediction can be detected out-of-order. Therefore, a corrected branch might not end up beeing committed in case an even earlier branch was mispredicted (Count)
system.cpu0.branchPred.corrected_0::Return        59434     21.93%     22.06% # Number of branches that got corrected but not yet commited. Branches get corrected by decode or after execute. Also a branch misprediction can be detected out-of-order. Therefore, a corrected branch might not end up beeing committed in case an even earlier branch was mispredicted (Count)
system.cpu0.branchPred.corrected_0::CallDirect         6142      2.27%     24.33% # Number of branches that got corrected but not yet commited. Branches get corrected by decode or after execute. Also a branch misprediction can be detected out-of-order. Therefore, a corrected branch might not end up beeing committed in case an even earlier branch was mispredicted (Count)
system.cpu0.branchPred.corrected_0::CallIndirect          105      0.04%     24.37% # Number of branches that got corrected but not yet commited. Branches get corrected by decode or after execute. Also a branch misprediction can be detected out-of-order. Therefore, a corrected branch might not end up beeing committed in case an even earlier branch was mispredicted (Count)
system.cpu0.branchPred.corrected_0::DirectCond       203546     75.09%     99.46% # Number of branches that got corrected but not yet commited. Branches get corrected by decode or after execute. Also a branch misprediction can be detected out-of-order. Therefore, a corrected branch might not end up beeing committed in case an even earlier branch was mispredicted (Count)
system.cpu0.branchPred.corrected_0::DirectUncond          731      0.27%     99.72% # Number of branches that got corrected but not yet commited. Branches get corrected by decode or after execute. Also a branch misprediction can be detected out-of-order. Therefore, a corrected branch might not end up beeing committed in case an even earlier branch was mispredicted (Count)
system.cpu0.branchPred.corrected_0::IndirectCond            0      0.00%     99.72% # Number of branches that got corrected but not yet commited. Branches get corrected by decode or after execute. Also a branch misprediction can be detected out-of-order. Therefore, a corrected branch might not end up beeing committed in case an even earlier branch was mispredicted (Count)
system.cpu0.branchPred.corrected_0::IndirectUncond          746      0.28%    100.00% # Number of branches that got corrected but not yet commited. Branches get corrected by decode or after execute. Also a branch misprediction can be detected out-of-order. Therefore, a corrected branch might not end up beeing committed in case an even earlier branch was mispredicted (Count)
system.cpu0.branchPred.corrected_0::total       271075                       # Number of branches that got corrected but not yet commited. Branches get corrected by decode or after execute. Also a branch misprediction can be detected out-of-order. Therefore, a corrected branch might not end up beeing committed in case an even earlier branch was mispredicted (Count)
system.cpu0.branchPred.earlyResteers_0::NoBranch            0                       # Number of branches that got redirected after decode. (Count)
system.cpu0.branchPred.earlyResteers_0::Return            0                       # Number of branches that got redirected after decode. (Count)
system.cpu0.branchPred.earlyResteers_0::CallDirect            0                       # Number of branches that got redirected after decode. (Count)
system.cpu0.branchPred.earlyResteers_0::CallIndirect            0                       # Number of branches that got redirected after decode. (Count)
system.cpu0.branchPred.earlyResteers_0::DirectCond            0                       # Number of branches that got redirected after decode. (Count)
system.cpu0.branchPred.earlyResteers_0::DirectUncond            0                       # Number of branches that got redirected after decode. (Count)
system.cpu0.branchPred.earlyResteers_0::IndirectCond            0                       # Number of branches that got redirected after decode. (Count)
system.cpu0.branchPred.earlyResteers_0::IndirectUncond            0                       # Number of branches that got redirected after decode. (Count)
system.cpu0.branchPred.earlyResteers_0::total            0                       # Number of branches that got redirected after decode. (Count)
system.cpu0.branchPred.committed_0::NoBranch       236762      0.04%      0.04% # Number of branches finally committed  (Count)
system.cpu0.branchPred.committed_0::Return    227950022     36.69%     36.72% # Number of branches finally committed  (Count)
system.cpu0.branchPred.committed_0::CallDirect    227946672     36.69%     73.41% # Number of branches finally committed  (Count)
system.cpu0.branchPred.committed_0::CallIndirect         3906      0.00%     73.41% # Number of branches finally committed  (Count)
system.cpu0.branchPred.committed_0::DirectCond    109787684     17.67%     91.08% # Number of branches finally committed  (Count)
system.cpu0.branchPred.committed_0::DirectUncond     55361066      8.91%     99.99% # Number of branches finally committed  (Count)
system.cpu0.branchPred.committed_0::IndirectCond            0      0.00%     99.99% # Number of branches finally committed  (Count)
system.cpu0.branchPred.committed_0::IndirectUncond        62617      0.01%    100.00% # Number of branches finally committed  (Count)
system.cpu0.branchPred.committed_0::total    621348729                       # Number of branches finally committed  (Count)
system.cpu0.branchPred.mispredicted_0::NoBranch          371      0.14%      0.14% # Number of committed branches that were mispredicted. (Count)
system.cpu0.branchPred.mispredicted_0::Return        59434     21.93%     22.06% # Number of committed branches that were mispredicted. (Count)
system.cpu0.branchPred.mispredicted_0::CallDirect         6142      2.27%     24.33% # Number of committed branches that were mispredicted. (Count)
system.cpu0.branchPred.mispredicted_0::CallIndirect          105      0.04%     24.37% # Number of committed branches that were mispredicted. (Count)
system.cpu0.branchPred.mispredicted_0::DirectCond       203546     75.09%     99.46% # Number of committed branches that were mispredicted. (Count)
system.cpu0.branchPred.mispredicted_0::DirectUncond          731      0.27%     99.72% # Number of committed branches that were mispredicted. (Count)
system.cpu0.branchPred.mispredicted_0::IndirectCond            0      0.00%     99.72% # Number of committed branches that were mispredicted. (Count)
system.cpu0.branchPred.mispredicted_0::IndirectUncond          746      0.28%    100.00% # Number of committed branches that were mispredicted. (Count)
system.cpu0.branchPred.mispredicted_0::total       271075                       # Number of committed branches that were mispredicted. (Count)
system.cpu0.branchPred.targetProvider_0::NoTarget     67733090     10.89%     10.89% # The component providing the target for taken branches (Count)
system.cpu0.branchPred.targetProvider_0::BTB    326102601     52.43%     63.32% # The component providing the target for taken branches (Count)
system.cpu0.branchPred.targetProvider_0::RAS    228140485     36.68%    100.00% # The component providing the target for taken branches (Count)
system.cpu0.branchPred.targetProvider_0::Indirect         7359      0.00%    100.00% # The component providing the target for taken branches (Count)
system.cpu0.branchPred.targetProvider_0::total    621983535                       # The component providing the target for taken branches (Count)
system.cpu0.branchPred.targetWrong_0::NoBranch       125414     46.33%     46.33% # Number of branches where the target was incorrect or not available at prediction time. (Count)
system.cpu0.branchPred.targetWrong_0::Return        85143     31.45%     77.78% # Number of branches where the target was incorrect or not available at prediction time. (Count)
system.cpu0.branchPred.targetWrong_0::CallDirect        59432     21.95%     99.74% # Number of branches where the target was incorrect or not available at prediction time. (Count)
system.cpu0.branchPred.targetWrong_0::CallIndirect          713      0.26%    100.00% # Number of branches where the target was incorrect or not available at prediction time. (Count)
system.cpu0.branchPred.targetWrong_0::DirectCond            0      0.00%    100.00% # Number of branches where the target was incorrect or not available at prediction time. (Count)
system.cpu0.branchPred.targetWrong_0::DirectUncond            0      0.00%    100.00% # Number of branches where the target was incorrect or not available at prediction time. (Count)
system.cpu0.branchPred.targetWrong_0::IndirectCond            0      0.00%    100.00% # Number of branches where the target was incorrect or not available at prediction time. (Count)
system.cpu0.branchPred.targetWrong_0::IndirectUncond            0      0.00%    100.00% # Number of branches where the target was incorrect or not available at prediction time. (Count)
system.cpu0.branchPred.targetWrong_0::total       270702                       # Number of branches where the target was incorrect or not available at prediction time. (Count)
system.cpu0.branchPred.condPredicted        110323153                       # Number of conditional branches predicted (Count)
system.cpu0.branchPred.condPredictedTaken     42657410                       # Number of conditional branches predicted as taken (Count)
system.cpu0.branchPred.condIncorrect           271075                       # Number of conditional branches incorrect (Count)
system.cpu0.branchPred.predTakenBTBMiss          2608                       # Number of branches predicted taken but missed in BTB (Count)
system.cpu0.branchPred.NotTakenMispredicted       191878                       # Number branches predicted 'not taken' but turned out to be taken (Count)
system.cpu0.branchPred.TakenMispredicted        79197                       # Number branches predicted taken but are actually not taken (Count)
system.cpu0.branchPred.BTBLookups           621983535                       # Number of BTB lookups (Count)
system.cpu0.branchPred.BTBUpdates              131222                       # Number of BTB updates (Count)
system.cpu0.branchPred.BTBHits              378303998                       # Number of BTB hits (Count)
system.cpu0.branchPred.BTBHitRatio           0.608222                       # BTB Hit Ratio (Ratio)
system.cpu0.branchPred.BTBMispredicted           3009                       # Number BTB mispredictions. No target found or target wrong (Count)
system.cpu0.branchPred.indirectLookups          66856                       # Number of indirect predictor lookups. (Count)
system.cpu0.branchPred.indirectHits              7359                       # Number of indirect target hits. (Count)
system.cpu0.branchPred.indirectMisses           59497                       # Number of indirect misses. (Count)
system.cpu0.branchPred.indirectMispredicted            0                       # Number of mispredicted indirect branches. (Count)
system.cpu0.branchPred.btb.lookups::NoBranch       362550      0.06%      0.06% # Number of BTB lookups (Count)
system.cpu0.branchPred.btb.lookups::Return    228140488     36.68%     36.74% # Number of BTB lookups (Count)
system.cpu0.branchPred.btb.lookups::CallDirect    228066863     36.67%     73.41% # Number of BTB lookups (Count)
system.cpu0.branchPred.btb.lookups::CallIndirect         4007      0.00%     73.41% # Number of BTB lookups (Count)
system.cpu0.branchPred.btb.lookups::DirectCond    109901536     17.67%     91.08% # Number of BTB lookups (Count)
system.cpu0.branchPred.btb.lookups::DirectUncond     55445238      8.91%     99.99% # Number of BTB lookups (Count)
system.cpu0.branchPred.btb.lookups::IndirectCond            4      0.00%     99.99% # Number of BTB lookups (Count)
system.cpu0.branchPred.btb.lookups::IndirectUncond        62849      0.01%    100.00% # Number of BTB lookups (Count)
system.cpu0.branchPred.btb.lookups::total    621983535                       # Number of BTB lookups (Count)
system.cpu0.branchPred.btb.misses::NoBranch       362550      0.15%      0.15% # Number of BTB misses (Count)
system.cpu0.branchPred.btb.misses::Return    228140484     93.62%     93.77% # Number of BTB misses (Count)
system.cpu0.branchPred.btb.misses::CallDirect        62334      0.03%     93.80% # Number of BTB misses (Count)
system.cpu0.branchPred.btb.misses::CallIndirect         4007      0.00%     93.80% # Number of BTB misses (Count)
system.cpu0.branchPred.btb.misses::DirectCond     15046135      6.17%     99.97% # Number of BTB misses (Count)
system.cpu0.branchPred.btb.misses::DirectUncond         1174      0.00%     99.97% # Number of BTB misses (Count)
system.cpu0.branchPred.btb.misses::IndirectCond            4      0.00%     99.97% # Number of BTB misses (Count)
system.cpu0.branchPred.btb.misses::IndirectUncond        62849      0.03%    100.00% # Number of BTB misses (Count)
system.cpu0.branchPred.btb.misses::total    243679537                       # Number of BTB misses (Count)
system.cpu0.branchPred.btb.updates::NoBranch            0      0.00%      0.00% # Number of BTB updates (Count)
system.cpu0.branchPred.btb.updates::Return            0      0.00%      0.00% # Number of BTB updates (Count)
system.cpu0.branchPred.btb.updates::CallDirect         6142      4.68%      4.68% # Number of BTB updates (Count)
system.cpu0.branchPred.btb.updates::CallIndirect            0      0.00%      4.68% # Number of BTB updates (Count)
system.cpu0.branchPred.btb.updates::DirectCond       124349     94.76%     99.44% # Number of BTB updates (Count)
system.cpu0.branchPred.btb.updates::DirectUncond          731      0.56%    100.00% # Number of BTB updates (Count)
system.cpu0.branchPred.btb.updates::IndirectCond            0      0.00%    100.00% # Number of BTB updates (Count)
system.cpu0.branchPred.btb.updates::IndirectUncond            0      0.00%    100.00% # Number of BTB updates (Count)
system.cpu0.branchPred.btb.updates::total       131222                       # Number of BTB updates (Count)
system.cpu0.branchPred.btb.mispredict::NoBranch            0      0.00%      0.00% # Number of BTB mispredictions. No target found or target wrong. (Count)
system.cpu0.branchPred.btb.mispredict::Return            0      0.00%      0.00% # Number of BTB mispredictions. No target found or target wrong. (Count)
system.cpu0.branchPred.btb.mispredict::CallDirect         6142      4.68%      4.68% # Number of BTB mispredictions. No target found or target wrong. (Count)
system.cpu0.branchPred.btb.mispredict::CallIndirect            0      0.00%      4.68% # Number of BTB mispredictions. No target found or target wrong. (Count)
system.cpu0.branchPred.btb.mispredict::DirectCond       124349     94.76%     99.44% # Number of BTB mispredictions. No target found or target wrong. (Count)
system.cpu0.branchPred.btb.mispredict::DirectUncond          731      0.56%    100.00% # Number of BTB mispredictions. No target found or target wrong. (Count)
system.cpu0.branchPred.btb.mispredict::IndirectCond            0      0.00%    100.00% # Number of BTB mispredictions. No target found or target wrong. (Count)
system.cpu0.branchPred.btb.mispredict::IndirectUncond            0      0.00%    100.00% # Number of BTB mispredictions. No target found or target wrong. (Count)
system.cpu0.branchPred.btb.mispredict::total       131222                       # Number of BTB mispredictions. No target found or target wrong. (Count)
system.cpu0.branchPred.btb.power_state.pwrStateResidencyTicks::UNDEFINED 6572082563354                       # Cumulative time (in ticks) in various power states (Tick)
system.cpu0.branchPred.indirectBranchPred.lookups        66856                       # Number of lookups (Count)
system.cpu0.branchPred.indirectBranchPred.hits         7359                       # Number of hits of a tag (Count)
system.cpu0.branchPred.indirectBranchPred.misses        59497                       # Number of misses (Count)
system.cpu0.branchPred.indirectBranchPred.targetRecords          851                       # Number of targets that where recorded/installed in the cache (Count)
system.cpu0.branchPred.indirectBranchPred.indirectRecords        67711                       # Number of indirect branches/calls recorded in the indirect hist (Count)
system.cpu0.branchPred.indirectBranchPred.speculativeOverflows            0                       # Number of times more than the allowed capacity for speculative branches/calls where in flight and destroy the path history (Count)
system.cpu0.branchPred.ras.pushes           228261335                       # Number of times a PC was pushed onto the RAS (Count)
system.cpu0.branchPred.ras.pops             228260780                       # Number of times a PC was poped from the RAS (Count)
system.cpu0.branchPred.ras.squashes            310757                       # Number of times the stack operation was squashed due to wrong speculation. (Count)
system.cpu0.branchPred.ras.used             227950022                       # Number of times the RAS is the provider (Count)
system.cpu0.branchPred.ras.correct          227890588                       # Number of times the RAS is the provider and the prediction is correct (Count)
system.cpu0.branchPred.ras.incorrect            59434                       # Number of times the RAS is the provider and the prediction is wrong (Count)
system.cpu0.commitStats0.numInsts          5850388130                       # Number of instructions committed (thread level) (Count)
system.cpu0.commitStats0.numOps            6347631947                       # Number of ops (including micro ops) committed (thread level) (Count)
system.cpu0.commitStats0.numInstsNotNOP             0                       # Number of instructions committed excluding NOPs or prefetches (Count)
system.cpu0.commitStats0.numOpsNotNOP               0                       # Number of Ops (including micro ops) Simulated (Count)
system.cpu0.commitStats0.cpi                 1.348569                       # CPI: cycles per instruction (thread level) ((Cycle/Count))
system.cpu0.commitStats0.ipc                 0.741526                       # IPC: instructions per cycle (thread level) ((Count/Cycle))
system.cpu0.commitStats0.numMemRefs                 0                       # Number of memory references committed (Count)
system.cpu0.commitStats0.numFpInsts                 0                       # Number of float instructions (Count)
system.cpu0.commitStats0.numIntInsts                0                       # Number of integer instructions (Count)
system.cpu0.commitStats0.numLoadInsts               0                       # Number of load instructions (Count)
system.cpu0.commitStats0.numStoreInsts              0                       # Number of store instructions (Count)
system.cpu0.commitStats0.numVecInsts                0                       # Number of vector instructions (Count)
system.cpu0.commitStats0.committedInstType::No_OpClass            0      0.00%      0.00% # Class of committed instruction. (Count)
system.cpu0.commitStats0.committedInstType::IntAlu   3775708387     59.48%     59.48% # Class of committed instruction. (Count)
system.cpu0.commitStats0.committedInstType::IntMult     33115388      0.52%     60.00% # Class of committed instruction. (Count)
system.cpu0.commitStats0.committedInstType::IntDiv            0      0.00%     60.00% # Class of committed instruction. (Count)
system.cpu0.commitStats0.committedInstType::FloatAdd            0      0.00%     60.00% # Class of committed instruction. (Count)
system.cpu0.commitStats0.committedInstType::FloatCmp            0      0.00%     60.00% # Class of committed instruction. (Count)
system.cpu0.commitStats0.committedInstType::FloatCvt            0      0.00%     60.00% # Class of committed instruction. (Count)
system.cpu0.commitStats0.committedInstType::FloatMult            0      0.00%     60.00% # Class of committed instruction. (Count)
system.cpu0.commitStats0.committedInstType::FloatMultAcc            0      0.00%     60.00% # Class of committed instruction. (Count)
system.cpu0.commitStats0.committedInstType::FloatDiv            0      0.00%     60.00% # Class of committed instruction. (Count)
system.cpu0.commitStats0.committedInstType::FloatMisc            0      0.00%     60.00% # Class of committed instruction. (Count)
system.cpu0.commitStats0.committedInstType::FloatSqrt            0      0.00%     60.00% # Class of committed instruction. (Count)
system.cpu0.commitStats0.committedInstType::SimdAdd            0      0.00%     60.00% # Class of committed instruction. (Count)
system.cpu0.commitStats0.committedInstType::SimdAddAcc            0      0.00%     60.00% # Class of committed instruction. (Count)
system.cpu0.commitStats0.committedInstType::SimdAlu            0      0.00%     60.00% # Class of committed instruction. (Count)
system.cpu0.commitStats0.committedInstType::SimdCmp            0      0.00%     60.00% # Class of committed instruction. (Count)
system.cpu0.commitStats0.committedInstType::SimdCvt            0      0.00%     60.00% # Class of committed instruction. (Count)
system.cpu0.commitStats0.committedInstType::SimdMisc            0      0.00%     60.00% # Class of committed instruction. (Count)
system.cpu0.commitStats0.committedInstType::SimdMult            0      0.00%     60.00% # Class of committed instruction. (Count)
system.cpu0.commitStats0.committedInstType::SimdMultAcc            0      0.00%     60.00% # Class of committed instruction. (Count)
system.cpu0.commitStats0.committedInstType::SimdMatMultAcc            0      0.00%     60.00% # Class of committed instruction. (Count)
system.cpu0.commitStats0.committedInstType::SimdShift            0      0.00%     60.00% # Class of committed instruction. (Count)
system.cpu0.commitStats0.committedInstType::SimdShiftAcc            0      0.00%     60.00% # Class of committed instruction. (Count)
system.cpu0.commitStats0.committedInstType::SimdDiv            0      0.00%     60.00% # Class of committed instruction. (Count)
system.cpu0.commitStats0.committedInstType::SimdSqrt            0      0.00%     60.00% # Class of committed instruction. (Count)
system.cpu0.commitStats0.committedInstType::SimdFloatAdd     21527188      0.34%     60.34% # Class of committed instruction. (Count)
system.cpu0.commitStats0.committedInstType::SimdFloatAlu            0      0.00%     60.34% # Class of committed instruction. (Count)
system.cpu0.commitStats0.committedInstType::SimdFloatCmp     39253900      0.62%     60.96% # Class of committed instruction. (Count)
system.cpu0.commitStats0.committedInstType::SimdFloatCvt     21601246      0.34%     61.30% # Class of committed instruction. (Count)
system.cpu0.commitStats0.committedInstType::SimdFloatDiv      1881676      0.03%     61.33% # Class of committed instruction. (Count)
system.cpu0.commitStats0.committedInstType::SimdFloatMisc     62804579      0.99%     62.32% # Class of committed instruction. (Count)
system.cpu0.commitStats0.committedInstType::SimdFloatMult     19652358      0.31%     62.63% # Class of committed instruction. (Count)
system.cpu0.commitStats0.committedInstType::SimdFloatMultAcc         2000      0.00%     62.63% # Class of committed instruction. (Count)
system.cpu0.commitStats0.committedInstType::SimdFloatMatMultAcc            0      0.00%     62.63% # Class of committed instruction. (Count)
system.cpu0.commitStats0.committedInstType::SimdFloatSqrt           34      0.00%     62.63% # Class of committed instruction. (Count)
system.cpu0.commitStats0.committedInstType::SimdReduceAdd            0      0.00%     62.63% # Class of committed instruction. (Count)
system.cpu0.commitStats0.committedInstType::SimdReduceAlu            0      0.00%     62.63% # Class of committed instruction. (Count)
system.cpu0.commitStats0.committedInstType::SimdReduceCmp            0      0.00%     62.63% # Class of committed instruction. (Count)
system.cpu0.commitStats0.committedInstType::SimdFloatReduceAdd            0      0.00%     62.63% # Class of committed instruction. (Count)
system.cpu0.commitStats0.committedInstType::SimdFloatReduceCmp            0      0.00%     62.63% # Class of committed instruction. (Count)
system.cpu0.commitStats0.committedInstType::SimdAes            0      0.00%     62.63% # Class of committed instruction. (Count)
system.cpu0.commitStats0.committedInstType::SimdAesMix            0      0.00%     62.63% # Class of committed instruction. (Count)
system.cpu0.commitStats0.committedInstType::SimdSha1Hash            0      0.00%     62.63% # Class of committed instruction. (Count)
system.cpu0.commitStats0.committedInstType::SimdSha1Hash2            0      0.00%     62.63% # Class of committed instruction. (Count)
system.cpu0.commitStats0.committedInstType::SimdSha256Hash            0      0.00%     62.63% # Class of committed instruction. (Count)
system.cpu0.commitStats0.committedInstType::SimdSha256Hash2            0      0.00%     62.63% # Class of committed instruction. (Count)
system.cpu0.commitStats0.committedInstType::SimdShaSigma2            0      0.00%     62.63% # Class of committed instruction. (Count)
system.cpu0.commitStats0.committedInstType::SimdShaSigma3            0      0.00%     62.63% # Class of committed instruction. (Count)
system.cpu0.commitStats0.committedInstType::SimdPredAlu            0      0.00%     62.63% # Class of committed instruction. (Count)
system.cpu0.commitStats0.committedInstType::Matrix            0      0.00%     62.63% # Class of committed instruction. (Count)
system.cpu0.commitStats0.committedInstType::MatrixMov            0      0.00%     62.63% # Class of committed instruction. (Count)
system.cpu0.commitStats0.committedInstType::MatrixOP            0      0.00%     62.63% # Class of committed instruction. (Count)
system.cpu0.commitStats0.committedInstType::MemRead   1526432856     24.05%     86.68% # Class of committed instruction. (Count)
system.cpu0.commitStats0.committedInstType::MemWrite    845652335     13.32%    100.00% # Class of committed instruction. (Count)
system.cpu0.commitStats0.committedInstType::FloatMemRead            0      0.00%    100.00% # Class of committed instruction. (Count)
system.cpu0.commitStats0.committedInstType::FloatMemWrite            0      0.00%    100.00% # Class of committed instruction. (Count)
system.cpu0.commitStats0.committedInstType::IprAccess            0      0.00%    100.00% # Class of committed instruction. (Count)
system.cpu0.commitStats0.committedInstType::InstPrefetch            0      0.00%    100.00% # Class of committed instruction. (Count)
system.cpu0.commitStats0.committedInstType::SimdUnitStrideLoad            0      0.00%    100.00% # Class of committed instruction. (Count)
system.cpu0.commitStats0.committedInstType::SimdUnitStrideStore            0      0.00%    100.00% # Class of committed instruction. (Count)
system.cpu0.commitStats0.committedInstType::SimdUnitStrideMaskLoad            0      0.00%    100.00% # Class of committed instruction. (Count)
system.cpu0.commitStats0.committedInstType::SimdUnitStrideMaskStore            0      0.00%    100.00% # Class of committed instruction. (Count)
system.cpu0.commitStats0.committedInstType::SimdStridedLoad            0      0.00%    100.00% # Class of committed instruction. (Count)
system.cpu0.commitStats0.committedInstType::SimdStridedStore            0      0.00%    100.00% # Class of committed instruction. (Count)
system.cpu0.commitStats0.committedInstType::SimdIndexedLoad            0      0.00%    100.00% # Class of committed instruction. (Count)
system.cpu0.commitStats0.committedInstType::SimdIndexedStore            0      0.00%    100.00% # Class of committed instruction. (Count)
system.cpu0.commitStats0.committedInstType::SimdWholeRegisterLoad            0      0.00%    100.00% # Class of committed instruction. (Count)
system.cpu0.commitStats0.committedInstType::SimdWholeRegisterStore            0      0.00%    100.00% # Class of committed instruction. (Count)
system.cpu0.commitStats0.committedInstType::SimdUnitStrideFaultOnlyFirstLoad            0      0.00%    100.00% # Class of committed instruction. (Count)
system.cpu0.commitStats0.committedInstType::SimdUnitStrideSegmentedLoad            0      0.00%    100.00% # Class of committed instruction. (Count)
system.cpu0.commitStats0.committedInstType::SimdUnitStrideSegmentedStore            0      0.00%    100.00% # Class of committed instruction. (Count)
system.cpu0.commitStats0.committedInstType::SimdExt            0      0.00%    100.00% # Class of committed instruction. (Count)
system.cpu0.commitStats0.committedInstType::SimdFloatExt            0      0.00%    100.00% # Class of committed instruction. (Count)
system.cpu0.commitStats0.committedInstType::SimdConfig            0      0.00%    100.00% # Class of committed instruction. (Count)
system.cpu0.commitStats0.committedInstType::total   6347631947                       # Class of committed instruction. (Count)
system.cpu0.dcache.demandHits::cpu0.data   2019413317                       # number of demand (read+write) hits (Count)
system.cpu0.dcache.demandHits::total       2019413317                       # number of demand (read+write) hits (Count)
system.cpu0.dcache.overallHits::cpu0.data   2019415848                       # number of overall hits (Count)
system.cpu0.dcache.overallHits::total      2019415848                       # number of overall hits (Count)
system.cpu0.dcache.demandMisses::cpu0.data     31639885                       # number of demand (read+write) misses (Count)
system.cpu0.dcache.demandMisses::total       31639885                       # number of demand (read+write) misses (Count)
system.cpu0.dcache.overallMisses::cpu0.data     31639916                       # number of overall misses (Count)
system.cpu0.dcache.overallMisses::total      31639916                       # number of overall misses (Count)
system.cpu0.dcache.demandMissLatency::cpu0.data 1624967838599                       # number of demand (read+write) miss ticks (Tick)
system.cpu0.dcache.demandMissLatency::total 1624967838599                       # number of demand (read+write) miss ticks (Tick)
system.cpu0.dcache.overallMissLatency::cpu0.data 1624967838599                       # number of overall miss ticks (Tick)
system.cpu0.dcache.overallMissLatency::total 1624967838599                       # number of overall miss ticks (Tick)
system.cpu0.dcache.demandAccesses::cpu0.data   2051053202                       # number of demand (read+write) accesses (Count)
system.cpu0.dcache.demandAccesses::total   2051053202                       # number of demand (read+write) accesses (Count)
system.cpu0.dcache.overallAccesses::cpu0.data   2051055764                       # number of overall (read+write) accesses (Count)
system.cpu0.dcache.overallAccesses::total   2051055764                       # number of overall (read+write) accesses (Count)
system.cpu0.dcache.demandMissRate::cpu0.data     0.015426                       # miss rate for demand accesses (Ratio)
system.cpu0.dcache.demandMissRate::total     0.015426                       # miss rate for demand accesses (Ratio)
system.cpu0.dcache.overallMissRate::cpu0.data     0.015426                       # miss rate for overall accesses (Ratio)
system.cpu0.dcache.overallMissRate::total     0.015426                       # miss rate for overall accesses (Ratio)
system.cpu0.dcache.demandAvgMissLatency::cpu0.data 51358.209380                       # average overall miss latency in ticks ((Tick/Count))
system.cpu0.dcache.demandAvgMissLatency::total 51358.209380                       # average overall miss latency in ticks ((Tick/Count))
system.cpu0.dcache.overallAvgMissLatency::cpu0.data 51358.159061                       # average overall miss latency ((Tick/Count))
system.cpu0.dcache.overallAvgMissLatency::total 51358.159061                       # average overall miss latency ((Tick/Count))
system.cpu0.dcache.blockedCycles::no_mshrs            0                       # number of cycles access was blocked (Cycle)
system.cpu0.dcache.blockedCycles::no_targets            0                       # number of cycles access was blocked (Cycle)
system.cpu0.dcache.blockedCauses::no_mshrs            0                       # number of times access was blocked (Count)
system.cpu0.dcache.blockedCauses::no_targets            0                       # number of times access was blocked (Count)
system.cpu0.dcache.avgBlocked::no_mshrs           nan                       # average number of cycles each access was blocked ((Cycle/Count))
system.cpu0.dcache.avgBlocked::no_targets          nan                       # average number of cycles each access was blocked ((Cycle/Count))
system.cpu0.dcache.writebacks::writebacks      2323231                       # number of writebacks (Count)
system.cpu0.dcache.writebacks::total          2323231                       # number of writebacks (Count)
system.cpu0.dcache.demandMshrHits::cpu0.data       619337                       # number of demand (read+write) MSHR hits (Count)
system.cpu0.dcache.demandMshrHits::total       619337                       # number of demand (read+write) MSHR hits (Count)
system.cpu0.dcache.overallMshrHits::cpu0.data       619337                       # number of overall MSHR hits (Count)
system.cpu0.dcache.overallMshrHits::total       619337                       # number of overall MSHR hits (Count)
system.cpu0.dcache.demandMshrMisses::cpu0.data     31020548                       # number of demand (read+write) MSHR misses (Count)
system.cpu0.dcache.demandMshrMisses::total     31020548                       # number of demand (read+write) MSHR misses (Count)
system.cpu0.dcache.overallMshrMisses::cpu0.data     31020571                       # number of overall MSHR misses (Count)
system.cpu0.dcache.overallMshrMisses::total     31020571                       # number of overall MSHR misses (Count)
system.cpu0.dcache.demandMshrMissLatency::cpu0.data 1251088381893                       # number of demand (read+write) MSHR miss ticks (Tick)
system.cpu0.dcache.demandMshrMissLatency::total 1251088381893                       # number of demand (read+write) MSHR miss ticks (Tick)
system.cpu0.dcache.overallMshrMissLatency::cpu0.data 1251103272601                       # number of overall MSHR miss ticks (Tick)
system.cpu0.dcache.overallMshrMissLatency::total 1251103272601                       # number of overall MSHR miss ticks (Tick)
system.cpu0.dcache.demandMshrMissRate::cpu0.data     0.015124                       # mshr miss ratio for demand accesses (Ratio)
system.cpu0.dcache.demandMshrMissRate::total     0.015124                       # mshr miss ratio for demand accesses (Ratio)
system.cpu0.dcache.overallMshrMissRate::cpu0.data     0.015124                       # mshr miss ratio for overall accesses (Ratio)
system.cpu0.dcache.overallMshrMissRate::total     0.015124                       # mshr miss ratio for overall accesses (Ratio)
system.cpu0.dcache.demandAvgMshrMissLatency::cpu0.data 40330.956819                       # average overall mshr miss latency ((Tick/Count))
system.cpu0.dcache.demandAvgMshrMissLatency::total 40330.956819                       # average overall mshr miss latency ((Tick/Count))
system.cpu0.dcache.overallAvgMshrMissLatency::cpu0.data 40331.406943                       # average overall mshr miss latency ((Tick/Count))
system.cpu0.dcache.overallAvgMshrMissLatency::total 40331.406943                       # average overall mshr miss latency ((Tick/Count))
system.cpu0.dcache.replacements              31020113                       # number of replacements (Count)
system.cpu0.dcache.LoadLockedReq.hits::cpu0.data      3810299                       # number of LoadLockedReq hits (Count)
system.cpu0.dcache.LoadLockedReq.hits::total      3810299                       # number of LoadLockedReq hits (Count)
system.cpu0.dcache.LoadLockedReq.misses::cpu0.data           54                       # number of LoadLockedReq misses (Count)
system.cpu0.dcache.LoadLockedReq.misses::total           54                       # number of LoadLockedReq misses (Count)
system.cpu0.dcache.LoadLockedReq.missLatency::cpu0.data     12902337                       # number of LoadLockedReq miss ticks (Tick)
system.cpu0.dcache.LoadLockedReq.missLatency::total     12902337                       # number of LoadLockedReq miss ticks (Tick)
system.cpu0.dcache.LoadLockedReq.accesses::cpu0.data      3810353                       # number of LoadLockedReq accesses(hits+misses) (Count)
system.cpu0.dcache.LoadLockedReq.accesses::total      3810353                       # number of LoadLockedReq accesses(hits+misses) (Count)
system.cpu0.dcache.LoadLockedReq.missRate::cpu0.data     0.000014                       # miss rate for LoadLockedReq accesses (Ratio)
system.cpu0.dcache.LoadLockedReq.missRate::total     0.000014                       # miss rate for LoadLockedReq accesses (Ratio)
system.cpu0.dcache.LoadLockedReq.avgMissLatency::cpu0.data 238932.166667                       # average LoadLockedReq miss latency ((Tick/Count))
system.cpu0.dcache.LoadLockedReq.avgMissLatency::total 238932.166667                       # average LoadLockedReq miss latency ((Tick/Count))
system.cpu0.dcache.LoadLockedReq.mshrMisses::cpu0.data           54                       # number of LoadLockedReq MSHR misses (Count)
system.cpu0.dcache.LoadLockedReq.mshrMisses::total           54                       # number of LoadLockedReq MSHR misses (Count)
system.cpu0.dcache.LoadLockedReq.mshrMissLatency::cpu0.data     12812373                       # number of LoadLockedReq MSHR miss ticks (Tick)
system.cpu0.dcache.LoadLockedReq.mshrMissLatency::total     12812373                       # number of LoadLockedReq MSHR miss ticks (Tick)
system.cpu0.dcache.LoadLockedReq.mshrMissRate::cpu0.data     0.000014                       # mshr miss rate for LoadLockedReq accesses (Ratio)
system.cpu0.dcache.LoadLockedReq.mshrMissRate::total     0.000014                       # mshr miss rate for LoadLockedReq accesses (Ratio)
system.cpu0.dcache.LoadLockedReq.avgMshrMissLatency::cpu0.data 237266.166667                       # average LoadLockedReq mshr miss latency ((Tick/Count))
system.cpu0.dcache.LoadLockedReq.avgMshrMissLatency::total 237266.166667                       # average LoadLockedReq mshr miss latency ((Tick/Count))
system.cpu0.dcache.ReadReq.hits::cpu0.data   1179363106                       # number of ReadReq hits (Count)
system.cpu0.dcache.ReadReq.hits::total     1179363106                       # number of ReadReq hits (Count)
system.cpu0.dcache.ReadReq.misses::cpu0.data     29865458                       # number of ReadReq misses (Count)
system.cpu0.dcache.ReadReq.misses::total     29865458                       # number of ReadReq misses (Count)
system.cpu0.dcache.ReadReq.missLatency::cpu0.data 913792938226                       # number of ReadReq miss ticks (Tick)
system.cpu0.dcache.ReadReq.missLatency::total 913792938226                       # number of ReadReq miss ticks (Tick)
system.cpu0.dcache.ReadReq.accesses::cpu0.data   1209228564                       # number of ReadReq accesses(hits+misses) (Count)
system.cpu0.dcache.ReadReq.accesses::total   1209228564                       # number of ReadReq accesses(hits+misses) (Count)
system.cpu0.dcache.ReadReq.missRate::cpu0.data     0.024698                       # miss rate for ReadReq accesses (Ratio)
system.cpu0.dcache.ReadReq.missRate::total     0.024698                       # miss rate for ReadReq accesses (Ratio)
system.cpu0.dcache.ReadReq.avgMissLatency::cpu0.data 30596.983921                       # average ReadReq miss latency ((Tick/Count))
system.cpu0.dcache.ReadReq.avgMissLatency::total 30596.983921                       # average ReadReq miss latency ((Tick/Count))
system.cpu0.dcache.ReadReq.mshrHits::cpu0.data           99                       # number of ReadReq MSHR hits (Count)
system.cpu0.dcache.ReadReq.mshrHits::total           99                       # number of ReadReq MSHR hits (Count)
system.cpu0.dcache.ReadReq.mshrMisses::cpu0.data     29865359                       # number of ReadReq MSHR misses (Count)
system.cpu0.dcache.ReadReq.mshrMisses::total     29865359                       # number of ReadReq MSHR misses (Count)
system.cpu0.dcache.ReadReq.mshrMissLatency::cpu0.data 863948620598                       # number of ReadReq MSHR miss ticks (Tick)
system.cpu0.dcache.ReadReq.mshrMissLatency::total 863948620598                       # number of ReadReq MSHR miss ticks (Tick)
system.cpu0.dcache.ReadReq.mshrMissRate::cpu0.data     0.024698                       # mshr miss rate for ReadReq accesses (Ratio)
system.cpu0.dcache.ReadReq.mshrMissRate::total     0.024698                       # mshr miss rate for ReadReq accesses (Ratio)
system.cpu0.dcache.ReadReq.avgMshrMissLatency::cpu0.data 28928.117710                       # average ReadReq mshr miss latency ((Tick/Count))
system.cpu0.dcache.ReadReq.avgMshrMissLatency::total 28928.117710                       # average ReadReq mshr miss latency ((Tick/Count))
system.cpu0.dcache.SoftPFReq.hits::cpu0.data         2531                       # number of SoftPFReq hits (Count)
system.cpu0.dcache.SoftPFReq.hits::total         2531                       # number of SoftPFReq hits (Count)
system.cpu0.dcache.SoftPFReq.misses::cpu0.data           31                       # number of SoftPFReq misses (Count)
system.cpu0.dcache.SoftPFReq.misses::total           31                       # number of SoftPFReq misses (Count)
system.cpu0.dcache.SoftPFReq.accesses::cpu0.data         2562                       # number of SoftPFReq accesses(hits+misses) (Count)
system.cpu0.dcache.SoftPFReq.accesses::total         2562                       # number of SoftPFReq accesses(hits+misses) (Count)
system.cpu0.dcache.SoftPFReq.missRate::cpu0.data     0.012100                       # miss rate for SoftPFReq accesses (Ratio)
system.cpu0.dcache.SoftPFReq.missRate::total     0.012100                       # miss rate for SoftPFReq accesses (Ratio)
system.cpu0.dcache.SoftPFReq.mshrMisses::cpu0.data           23                       # number of SoftPFReq MSHR misses (Count)
system.cpu0.dcache.SoftPFReq.mshrMisses::total           23                       # number of SoftPFReq MSHR misses (Count)
system.cpu0.dcache.SoftPFReq.mshrMissLatency::cpu0.data     14890708                       # number of SoftPFReq MSHR miss ticks (Tick)
system.cpu0.dcache.SoftPFReq.mshrMissLatency::total     14890708                       # number of SoftPFReq MSHR miss ticks (Tick)
system.cpu0.dcache.SoftPFReq.mshrMissRate::cpu0.data     0.008977                       # mshr miss rate for SoftPFReq accesses (Ratio)
system.cpu0.dcache.SoftPFReq.mshrMissRate::total     0.008977                       # mshr miss rate for SoftPFReq accesses (Ratio)
system.cpu0.dcache.SoftPFReq.avgMshrMissLatency::cpu0.data 647422.086957                       # average SoftPFReq mshr miss latency ((Tick/Count))
system.cpu0.dcache.SoftPFReq.avgMshrMissLatency::total 647422.086957                       # average SoftPFReq mshr miss latency ((Tick/Count))
system.cpu0.dcache.StoreCondReq.hits::cpu0.data      3810353                       # number of StoreCondReq hits (Count)
system.cpu0.dcache.StoreCondReq.hits::total      3810353                       # number of StoreCondReq hits (Count)
system.cpu0.dcache.StoreCondReq.accesses::cpu0.data      3810353                       # number of StoreCondReq accesses(hits+misses) (Count)
system.cpu0.dcache.StoreCondReq.accesses::total      3810353                       # number of StoreCondReq accesses(hits+misses) (Count)
system.cpu0.dcache.WriteReq.hits::cpu0.data    840050211                       # number of WriteReq hits (Count)
system.cpu0.dcache.WriteReq.hits::total     840050211                       # number of WriteReq hits (Count)
system.cpu0.dcache.WriteReq.misses::cpu0.data      1774427                       # number of WriteReq misses (Count)
system.cpu0.dcache.WriteReq.misses::total      1774427                       # number of WriteReq misses (Count)
system.cpu0.dcache.WriteReq.missLatency::cpu0.data 711174900373                       # number of WriteReq miss ticks (Tick)
system.cpu0.dcache.WriteReq.missLatency::total 711174900373                       # number of WriteReq miss ticks (Tick)
system.cpu0.dcache.WriteReq.accesses::cpu0.data    841824638                       # number of WriteReq accesses(hits+misses) (Count)
system.cpu0.dcache.WriteReq.accesses::total    841824638                       # number of WriteReq accesses(hits+misses) (Count)
system.cpu0.dcache.WriteReq.missRate::cpu0.data     0.002108                       # miss rate for WriteReq accesses (Ratio)
system.cpu0.dcache.WriteReq.missRate::total     0.002108                       # miss rate for WriteReq accesses (Ratio)
system.cpu0.dcache.WriteReq.avgMissLatency::cpu0.data 400791.297908                       # average WriteReq miss latency ((Tick/Count))
system.cpu0.dcache.WriteReq.avgMissLatency::total 400791.297908                       # average WriteReq miss latency ((Tick/Count))
system.cpu0.dcache.WriteReq.mshrHits::cpu0.data       619238                       # number of WriteReq MSHR hits (Count)
system.cpu0.dcache.WriteReq.mshrHits::total       619238                       # number of WriteReq MSHR hits (Count)
system.cpu0.dcache.WriteReq.mshrMisses::cpu0.data      1155189                       # number of WriteReq MSHR misses (Count)
system.cpu0.dcache.WriteReq.mshrMisses::total      1155189                       # number of WriteReq MSHR misses (Count)
system.cpu0.dcache.WriteReq.mshrMissLatency::cpu0.data 387139761295                       # number of WriteReq MSHR miss ticks (Tick)
system.cpu0.dcache.WriteReq.mshrMissLatency::total 387139761295                       # number of WriteReq MSHR miss ticks (Tick)
system.cpu0.dcache.WriteReq.mshrMissRate::cpu0.data     0.001372                       # mshr miss rate for WriteReq accesses (Ratio)
system.cpu0.dcache.WriteReq.mshrMissRate::total     0.001372                       # mshr miss rate for WriteReq accesses (Ratio)
system.cpu0.dcache.WriteReq.avgMshrMissLatency::cpu0.data 335131.100880                       # average WriteReq mshr miss latency ((Tick/Count))
system.cpu0.dcache.WriteReq.avgMshrMissLatency::total 335131.100880                       # average WriteReq mshr miss latency ((Tick/Count))
system.cpu0.dcache.power_state.pwrStateResidencyTicks::UNDEFINED 6572082563354                       # Cumulative time (in ticks) in various power states (Tick)
system.cpu0.dcache.tags.tagsInUse          511.972119                       # Average ticks per tags in use ((Tick/Count))
system.cpu0.dcache.tags.totalRefs          2058057125                       # Total number of references to valid blocks. (Count)
system.cpu0.dcache.tags.sampledRefs          31020625                       # Sample count of references to valid blocks. (Count)
system.cpu0.dcache.tags.avgRefs             66.344799                       # Average number of references to valid blocks. ((Count/Count))
system.cpu0.dcache.tags.warmupTick             952952                       # The tick when the warmup percentage was hit. (Tick)
system.cpu0.dcache.tags.occupancies::cpu0.data   511.972119                       # Average occupied blocks per tick, per requestor ((Count/Tick))
system.cpu0.dcache.tags.avgOccs::cpu0.data     0.999946                       # Average percentage of cache occupancy ((Ratio/Tick))
system.cpu0.dcache.tags.avgOccs::total       0.999946                       # Average percentage of cache occupancy ((Ratio/Tick))
system.cpu0.dcache.tags.occupanciesTaskId::1024          512                       # Occupied blocks per task id (Count)
system.cpu0.dcache.tags.ageTaskId_1024::0            1                       # Occupied blocks per task id, per block age (Count)
system.cpu0.dcache.tags.ageTaskId_1024::1           65                       # Occupied blocks per task id, per block age (Count)
system.cpu0.dcache.tags.ageTaskId_1024::2          431                       # Occupied blocks per task id, per block age (Count)
system.cpu0.dcache.tags.ageTaskId_1024::3           13                       # Occupied blocks per task id, per block age (Count)
system.cpu0.dcache.tags.ageTaskId_1024::4            2                       # Occupied blocks per task id, per block age (Count)
system.cpu0.dcache.tags.ratioOccsTaskId::1024            1                       # Ratio of occupied blocks and all blocks, per task id (Ratio)
system.cpu0.dcache.tags.tagAccesses        4148373565                       # Number of tag accesses (Count)
system.cpu0.dcache.tags.dataAccesses       4148373565                       # Number of data accesses (Count)
system.cpu0.dcache.tags.power_state.pwrStateResidencyTicks::UNDEFINED 6572082563354                       # Cumulative time (in ticks) in various power states (Tick)
system.cpu0.executeStats0.numInsts                  0                       # Number of executed instructions (Count)
system.cpu0.executeStats0.numNop                    0                       # Number of nop insts executed (Count)
system.cpu0.executeStats0.numBranches               0                       # Number of branches executed (Count)
system.cpu0.executeStats0.numLoadInsts              0                       # Number of load instructions executed (Count)
system.cpu0.executeStats0.numStoreInsts             0                       # Number of stores executed (Count)
system.cpu0.executeStats0.instRate                  0                       # Inst execution rate ((Count/Cycle))
system.cpu0.executeStats0.numFpRegWrites            0                       # Number of times the floating registers were written (Count)
system.cpu0.executeStats0.numMemRefs                0                       # Number of memory refs (Count)
system.cpu0.executeStats0.numVecAluAccesses            0                       # Number of vector alu accesses (Count)
system.cpu0.executeStats0.numDiscardedOps      1411815                       # Number of ops (including micro ops) which were discarded before commit (Count)
system.cpu0.fetch2.intInstructions         3177649289                       # Number of integer instructions successfully decoded (Count)
system.cpu0.fetch2.fpInstructions                   0                       # Number of floating point instructions successfully decoded (Count)
system.cpu0.fetch2.vecInstructions                  0                       # Number of SIMD instructions successfully decoded (Count)
system.cpu0.fetch2.loadInstructions        1294542219                       # Number of memory load instructions successfully decoded (Count)
system.cpu0.fetch2.storeInstructions        585704840                       # Number of memory store instructions successfully decoded (Count)
system.cpu0.fetch2.amoInstructions                  0                       # Number of memory atomic instructions successfully decoded (Count)
system.cpu0.fetchStats0.numInsts                    0                       # Number of instructions fetched (thread level) (Count)
system.cpu0.fetchStats0.numOps                      0                       # Number of ops (including micro ops) fetched (thread level) (Count)
system.cpu0.fetchStats0.fetchRate                   0                       # Number of inst fetches per cycle ((Count/Cycle))
system.cpu0.fetchStats0.branchRate                  0                       # Number of branch fetches per cycle (Ratio)
system.cpu0.fetchStats0.numFetchSuspends            0                       # Number of times Execute suspended instruction fetching (Count)
system.cpu0.icache.demandHits::cpu0.inst   1645588970                       # number of demand (read+write) hits (Count)
system.cpu0.icache.demandHits::total       1645588970                       # number of demand (read+write) hits (Count)
system.cpu0.icache.overallHits::cpu0.inst   1645588970                       # number of overall hits (Count)
system.cpu0.icache.overallHits::total      1645588970                       # number of overall hits (Count)
system.cpu0.icache.demandMisses::cpu0.inst        12529                       # number of demand (read+write) misses (Count)
system.cpu0.icache.demandMisses::total          12529                       # number of demand (read+write) misses (Count)
system.cpu0.icache.overallMisses::cpu0.inst        12529                       # number of overall misses (Count)
system.cpu0.icache.overallMisses::total         12529                       # number of overall misses (Count)
system.cpu0.icache.demandMissLatency::cpu0.inst   1255251032                       # number of demand (read+write) miss ticks (Tick)
system.cpu0.icache.demandMissLatency::total   1255251032                       # number of demand (read+write) miss ticks (Tick)
system.cpu0.icache.overallMissLatency::cpu0.inst   1255251032                       # number of overall miss ticks (Tick)
system.cpu0.icache.overallMissLatency::total   1255251032                       # number of overall miss ticks (Tick)
system.cpu0.icache.demandAccesses::cpu0.inst   1645601499                       # number of demand (read+write) accesses (Count)
system.cpu0.icache.demandAccesses::total   1645601499                       # number of demand (read+write) accesses (Count)
system.cpu0.icache.overallAccesses::cpu0.inst   1645601499                       # number of overall (read+write) accesses (Count)
system.cpu0.icache.overallAccesses::total   1645601499                       # number of overall (read+write) accesses (Count)
system.cpu0.icache.demandMissRate::cpu0.inst     0.000008                       # miss rate for demand accesses (Ratio)
system.cpu0.icache.demandMissRate::total     0.000008                       # miss rate for demand accesses (Ratio)
system.cpu0.icache.overallMissRate::cpu0.inst     0.000008                       # miss rate for overall accesses (Ratio)
system.cpu0.icache.overallMissRate::total     0.000008                       # miss rate for overall accesses (Ratio)
system.cpu0.icache.demandAvgMissLatency::cpu0.inst 100187.647218                       # average overall miss latency in ticks ((Tick/Count))
system.cpu0.icache.demandAvgMissLatency::total 100187.647218                       # average overall miss latency in ticks ((Tick/Count))
system.cpu0.icache.overallAvgMissLatency::cpu0.inst 100187.647218                       # average overall miss latency ((Tick/Count))
system.cpu0.icache.overallAvgMissLatency::total 100187.647218                       # average overall miss latency ((Tick/Count))
system.cpu0.icache.blockedCycles::no_mshrs            0                       # number of cycles access was blocked (Cycle)
system.cpu0.icache.blockedCycles::no_targets            0                       # number of cycles access was blocked (Cycle)
system.cpu0.icache.blockedCauses::no_mshrs            0                       # number of times access was blocked (Count)
system.cpu0.icache.blockedCauses::no_targets            0                       # number of times access was blocked (Count)
system.cpu0.icache.avgBlocked::no_mshrs           nan                       # average number of cycles each access was blocked ((Cycle/Count))
system.cpu0.icache.avgBlocked::no_targets          nan                       # average number of cycles each access was blocked ((Cycle/Count))
system.cpu0.icache.writebacks::writebacks        12018                       # number of writebacks (Count)
system.cpu0.icache.writebacks::total            12018                       # number of writebacks (Count)
system.cpu0.icache.demandMshrMisses::cpu0.inst        12529                       # number of demand (read+write) MSHR misses (Count)
system.cpu0.icache.demandMshrMisses::total        12529                       # number of demand (read+write) MSHR misses (Count)
system.cpu0.icache.overallMshrMisses::cpu0.inst        12529                       # number of overall MSHR misses (Count)
system.cpu0.icache.overallMshrMisses::total        12529                       # number of overall MSHR misses (Count)
system.cpu0.icache.demandMshrMissLatency::cpu0.inst   1234377718                       # number of demand (read+write) MSHR miss ticks (Tick)
system.cpu0.icache.demandMshrMissLatency::total   1234377718                       # number of demand (read+write) MSHR miss ticks (Tick)
system.cpu0.icache.overallMshrMissLatency::cpu0.inst   1234377718                       # number of overall MSHR miss ticks (Tick)
system.cpu0.icache.overallMshrMissLatency::total   1234377718                       # number of overall MSHR miss ticks (Tick)
system.cpu0.icache.demandMshrMissRate::cpu0.inst     0.000008                       # mshr miss ratio for demand accesses (Ratio)
system.cpu0.icache.demandMshrMissRate::total     0.000008                       # mshr miss ratio for demand accesses (Ratio)
system.cpu0.icache.overallMshrMissRate::cpu0.inst     0.000008                       # mshr miss ratio for overall accesses (Ratio)
system.cpu0.icache.overallMshrMissRate::total     0.000008                       # mshr miss ratio for overall accesses (Ratio)
system.cpu0.icache.demandAvgMshrMissLatency::cpu0.inst 98521.647218                       # average overall mshr miss latency ((Tick/Count))
system.cpu0.icache.demandAvgMshrMissLatency::total 98521.647218                       # average overall mshr miss latency ((Tick/Count))
system.cpu0.icache.overallAvgMshrMissLatency::cpu0.inst 98521.647218                       # average overall mshr miss latency ((Tick/Count))
system.cpu0.icache.overallAvgMshrMissLatency::total 98521.647218                       # average overall mshr miss latency ((Tick/Count))
system.cpu0.icache.replacements                 12018                       # number of replacements (Count)
system.cpu0.icache.ReadReq.hits::cpu0.inst   1645588970                       # number of ReadReq hits (Count)
system.cpu0.icache.ReadReq.hits::total     1645588970                       # number of ReadReq hits (Count)
system.cpu0.icache.ReadReq.misses::cpu0.inst        12529                       # number of ReadReq misses (Count)
system.cpu0.icache.ReadReq.misses::total        12529                       # number of ReadReq misses (Count)
system.cpu0.icache.ReadReq.missLatency::cpu0.inst   1255251032                       # number of ReadReq miss ticks (Tick)
system.cpu0.icache.ReadReq.missLatency::total   1255251032                       # number of ReadReq miss ticks (Tick)
system.cpu0.icache.ReadReq.accesses::cpu0.inst   1645601499                       # number of ReadReq accesses(hits+misses) (Count)
system.cpu0.icache.ReadReq.accesses::total   1645601499                       # number of ReadReq accesses(hits+misses) (Count)
system.cpu0.icache.ReadReq.missRate::cpu0.inst     0.000008                       # miss rate for ReadReq accesses (Ratio)
system.cpu0.icache.ReadReq.missRate::total     0.000008                       # miss rate for ReadReq accesses (Ratio)
system.cpu0.icache.ReadReq.avgMissLatency::cpu0.inst 100187.647218                       # average ReadReq miss latency ((Tick/Count))
system.cpu0.icache.ReadReq.avgMissLatency::total 100187.647218                       # average ReadReq miss latency ((Tick/Count))
system.cpu0.icache.ReadReq.mshrMisses::cpu0.inst        12529                       # number of ReadReq MSHR misses (Count)
system.cpu0.icache.ReadReq.mshrMisses::total        12529                       # number of ReadReq MSHR misses (Count)
system.cpu0.icache.ReadReq.mshrMissLatency::cpu0.inst   1234377718                       # number of ReadReq MSHR miss ticks (Tick)
system.cpu0.icache.ReadReq.mshrMissLatency::total   1234377718                       # number of ReadReq MSHR miss ticks (Tick)
system.cpu0.icache.ReadReq.mshrMissRate::cpu0.inst     0.000008                       # mshr miss rate for ReadReq accesses (Ratio)
system.cpu0.icache.ReadReq.mshrMissRate::total     0.000008                       # mshr miss rate for ReadReq accesses (Ratio)
system.cpu0.icache.ReadReq.avgMshrMissLatency::cpu0.inst 98521.647218                       # average ReadReq mshr miss latency ((Tick/Count))
system.cpu0.icache.ReadReq.avgMshrMissLatency::total 98521.647218                       # average ReadReq mshr miss latency ((Tick/Count))
system.cpu0.icache.power_state.pwrStateResidencyTicks::UNDEFINED 6572082563354                       # Cumulative time (in ticks) in various power states (Tick)
system.cpu0.icache.tags.tagsInUse          504.705579                       # Average ticks per tags in use ((Tick/Count))
system.cpu0.icache.tags.totalRefs          1645601499                       # Total number of references to valid blocks. (Count)
system.cpu0.icache.tags.sampledRefs             12529                       # Sample count of references to valid blocks. (Count)
system.cpu0.icache.tags.avgRefs          131343.403225                       # Average number of references to valid blocks. ((Count/Count))
system.cpu0.icache.tags.warmupTick             448154                       # The tick when the warmup percentage was hit. (Tick)
system.cpu0.icache.tags.occupancies::cpu0.inst   504.705579                       # Average occupied blocks per tick, per requestor ((Count/Tick))
system.cpu0.icache.tags.avgOccs::cpu0.inst     0.985753                       # Average percentage of cache occupancy ((Ratio/Tick))
system.cpu0.icache.tags.avgOccs::total       0.985753                       # Average percentage of cache occupancy ((Ratio/Tick))
system.cpu0.icache.tags.occupanciesTaskId::1024          511                       # Occupied blocks per task id (Count)
system.cpu0.icache.tags.ageTaskId_1024::0            7                       # Occupied blocks per task id, per block age (Count)
system.cpu0.icache.tags.ageTaskId_1024::1           52                       # Occupied blocks per task id, per block age (Count)
system.cpu0.icache.tags.ageTaskId_1024::3          261                       # Occupied blocks per task id, per block age (Count)
system.cpu0.icache.tags.ageTaskId_1024::4          191                       # Occupied blocks per task id, per block age (Count)
system.cpu0.icache.tags.ratioOccsTaskId::1024     0.998047                       # Ratio of occupied blocks and all blocks, per task id (Ratio)
system.cpu0.icache.tags.tagAccesses        3291215527                       # Number of tag accesses (Count)
system.cpu0.icache.tags.dataAccesses       3291215527                       # Number of data accesses (Count)
system.cpu0.icache.tags.power_state.pwrStateResidencyTicks::UNDEFINED 6572082563354                       # Cumulative time (in ticks) in various power states (Tick)
system.cpu0.mmu.alignFaults                         0                       # Number of MMU faults due to alignment restrictions (Count)
system.cpu0.mmu.prefetchFaults                      0                       # Number of MMU faults due to prefetch (Count)
system.cpu0.mmu.domainFaults                        0                       # Number of MMU faults due to domain restrictions (Count)
system.cpu0.mmu.permsFaults                         0                       # Number of MMU faults due to permissions restrictions (Count)
system.cpu0.mmu.dtb.readHits                        0                       # Read hits (Count)
system.cpu0.mmu.dtb.readMisses                      0                       # Read misses (Count)
system.cpu0.mmu.dtb.writeHits                       0                       # Write hits (Count)
system.cpu0.mmu.dtb.writeMisses                     0                       # Write misses (Count)
system.cpu0.mmu.dtb.inserts                         0                       # Number of times an entry is inserted into the TLB (Count)
system.cpu0.mmu.dtb.flushTlb                       95                       # Number of times a TLB invalidation was requested (Count)
system.cpu0.mmu.dtb.flushedEntries                  0                       # Number of entries that have been flushed from TLB (Count)
system.cpu0.mmu.dtb.readAccesses                    0                       # Read accesses (Count)
system.cpu0.mmu.dtb.writeAccesses                   0                       # Write accesses (Count)
system.cpu0.mmu.dtb.hits                            0                       # Total TLB (inst and data) hits (Count)
system.cpu0.mmu.dtb.misses                          0                       # Total TLB (inst and data) misses (Count)
system.cpu0.mmu.dtb.accesses                        0                       # Total TLB (inst and data) accesses (Count)
system.cpu0.mmu.dtb_walker.walks                    0                       # Table walker walks requested (Count)
system.cpu0.mmu.dtb_walker.requestOrigin_Requested::Data            0                       # Table walker requests started/completed, data/inst (Count)
system.cpu0.mmu.dtb_walker.requestOrigin_Requested::Inst            0                       # Table walker requests started/completed, data/inst (Count)
system.cpu0.mmu.dtb_walker.requestOrigin_Requested::total            0                       # Table walker requests started/completed, data/inst (Count)
system.cpu0.mmu.dtb_walker.requestOrigin_Completed::Data            0                       # Table walker requests started/completed, data/inst (Count)
system.cpu0.mmu.dtb_walker.requestOrigin_Completed::Inst            0                       # Table walker requests started/completed, data/inst (Count)
system.cpu0.mmu.dtb_walker.requestOrigin_Completed::total            0                       # Table walker requests started/completed, data/inst (Count)
system.cpu0.mmu.dtb_walker.requestOrigin::total            0                       # Table walker requests started/completed, data/inst (Count)
system.cpu0.mmu.dtb_walker.power_state.pwrStateResidencyTicks::UNDEFINED 6572082563354                       # Cumulative time (in ticks) in various power states (Tick)
system.cpu0.mmu.itb.instHits                        0                       # Inst hits (Count)
system.cpu0.mmu.itb.instMisses                      0                       # Inst misses (Count)
system.cpu0.mmu.itb.inserts                         0                       # Number of times an entry is inserted into the TLB (Count)
system.cpu0.mmu.itb.flushTlb                       95                       # Number of times a TLB invalidation was requested (Count)
system.cpu0.mmu.itb.flushedEntries                  0                       # Number of entries that have been flushed from TLB (Count)
system.cpu0.mmu.itb.instAccesses                    0                       # Inst accesses (Count)
system.cpu0.mmu.itb.hits                            0                       # Total TLB (inst and data) hits (Count)
system.cpu0.mmu.itb.misses                          0                       # Total TLB (inst and data) misses (Count)
system.cpu0.mmu.itb.accesses                        0                       # Total TLB (inst and data) accesses (Count)
system.cpu0.mmu.itb_walker.walks                    0                       # Table walker walks requested (Count)
system.cpu0.mmu.itb_walker.requestOrigin_Requested::Data            0                       # Table walker requests started/completed, data/inst (Count)
system.cpu0.mmu.itb_walker.requestOrigin_Requested::Inst            0                       # Table walker requests started/completed, data/inst (Count)
system.cpu0.mmu.itb_walker.requestOrigin_Requested::total            0                       # Table walker requests started/completed, data/inst (Count)
system.cpu0.mmu.itb_walker.requestOrigin_Completed::Data            0                       # Table walker requests started/completed, data/inst (Count)
system.cpu0.mmu.itb_walker.requestOrigin_Completed::Inst            0                       # Table walker requests started/completed, data/inst (Count)
system.cpu0.mmu.itb_walker.requestOrigin_Completed::total            0                       # Table walker requests started/completed, data/inst (Count)
system.cpu0.mmu.itb_walker.requestOrigin::total            0                       # Table walker requests started/completed, data/inst (Count)
system.cpu0.mmu.itb_walker.power_state.pwrStateResidencyTicks::UNDEFINED 6572082563354                       # Cumulative time (in ticks) in various power states (Tick)
system.cpu0.mmu.l2_shared.instHits                  0                       # Inst hits (Count)
system.cpu0.mmu.l2_shared.instMisses                0                       # Inst misses (Count)
system.cpu0.mmu.l2_shared.inserts                   0                       # Number of times an entry is inserted into the TLB (Count)
system.cpu0.mmu.l2_shared.flushTlb                 95                       # Number of times a TLB invalidation was requested (Count)
system.cpu0.mmu.l2_shared.flushedEntries            0                       # Number of entries that have been flushed from TLB (Count)
system.cpu0.mmu.l2_shared.instAccesses              0                       # Inst accesses (Count)
system.cpu0.mmu.l2_shared.hits                      0                       # Total TLB (inst and data) hits (Count)
system.cpu0.mmu.l2_shared.misses                    0                       # Total TLB (inst and data) misses (Count)
system.cpu0.mmu.l2_shared.accesses                  0                       # Total TLB (inst and data) accesses (Count)
system.cpu0.mmu.stage2_dtb.readHits                 0                       # Read hits (Count)
system.cpu0.mmu.stage2_dtb.readMisses               0                       # Read misses (Count)
system.cpu0.mmu.stage2_dtb.writeHits                0                       # Write hits (Count)
system.cpu0.mmu.stage2_dtb.writeMisses              0                       # Write misses (Count)
system.cpu0.mmu.stage2_dtb.inserts                  0                       # Number of times an entry is inserted into the TLB (Count)
system.cpu0.mmu.stage2_dtb.flushTlb                95                       # Number of times a TLB invalidation was requested (Count)
system.cpu0.mmu.stage2_dtb.flushedEntries            0                       # Number of entries that have been flushed from TLB (Count)
system.cpu0.mmu.stage2_dtb.readAccesses             0                       # Read accesses (Count)
system.cpu0.mmu.stage2_dtb.writeAccesses            0                       # Write accesses (Count)
system.cpu0.mmu.stage2_dtb.hits                     0                       # Total TLB (inst and data) hits (Count)
system.cpu0.mmu.stage2_dtb.misses                   0                       # Total TLB (inst and data) misses (Count)
system.cpu0.mmu.stage2_dtb.accesses                 0                       # Total TLB (inst and data) accesses (Count)
system.cpu0.mmu.stage2_dtb_walker.walks             0                       # Table walker walks requested (Count)
system.cpu0.mmu.stage2_dtb_walker.requestOrigin_Requested::Data            0                       # Table walker requests started/completed, data/inst (Count)
system.cpu0.mmu.stage2_dtb_walker.requestOrigin_Requested::Inst            0                       # Table walker requests started/completed, data/inst (Count)
system.cpu0.mmu.stage2_dtb_walker.requestOrigin_Requested::total            0                       # Table walker requests started/completed, data/inst (Count)
system.cpu0.mmu.stage2_dtb_walker.requestOrigin_Completed::Data            0                       # Table walker requests started/completed, data/inst (Count)
system.cpu0.mmu.stage2_dtb_walker.requestOrigin_Completed::Inst            0                       # Table walker requests started/completed, data/inst (Count)
system.cpu0.mmu.stage2_dtb_walker.requestOrigin_Completed::total            0                       # Table walker requests started/completed, data/inst (Count)
system.cpu0.mmu.stage2_dtb_walker.requestOrigin::total            0                       # Table walker requests started/completed, data/inst (Count)
system.cpu0.mmu.stage2_dtb_walker.power_state.pwrStateResidencyTicks::UNDEFINED 6572082563354                       # Cumulative time (in ticks) in various power states (Tick)
system.cpu0.mmu.stage2_itb.instHits                 0                       # Inst hits (Count)
system.cpu0.mmu.stage2_itb.instMisses               0                       # Inst misses (Count)
system.cpu0.mmu.stage2_itb.inserts                  0                       # Number of times an entry is inserted into the TLB (Count)
system.cpu0.mmu.stage2_itb.flushTlb                95                       # Number of times a TLB invalidation was requested (Count)
system.cpu0.mmu.stage2_itb.flushedEntries            0                       # Number of entries that have been flushed from TLB (Count)
system.cpu0.mmu.stage2_itb.instAccesses             0                       # Inst accesses (Count)
system.cpu0.mmu.stage2_itb.hits                     0                       # Total TLB (inst and data) hits (Count)
system.cpu0.mmu.stage2_itb.misses                   0                       # Total TLB (inst and data) misses (Count)
system.cpu0.mmu.stage2_itb.accesses                 0                       # Total TLB (inst and data) accesses (Count)
system.cpu0.mmu.stage2_itb_walker.walks             0                       # Table walker walks requested (Count)
system.cpu0.mmu.stage2_itb_walker.requestOrigin_Requested::Data            0                       # Table walker requests started/completed, data/inst (Count)
system.cpu0.mmu.stage2_itb_walker.requestOrigin_Requested::Inst            0                       # Table walker requests started/completed, data/inst (Count)
system.cpu0.mmu.stage2_itb_walker.requestOrigin_Requested::total            0                       # Table walker requests started/completed, data/inst (Count)
system.cpu0.mmu.stage2_itb_walker.requestOrigin_Completed::Data            0                       # Table walker requests started/completed, data/inst (Count)
system.cpu0.mmu.stage2_itb_walker.requestOrigin_Completed::Inst            0                       # Table walker requests started/completed, data/inst (Count)
system.cpu0.mmu.stage2_itb_walker.requestOrigin_Completed::total            0                       # Table walker requests started/completed, data/inst (Count)
[...]
system.l2.ReadSharedReq.mshrHits::total            37                       # number of ReadSharedReq MSHR hits (Count)
system.l2.ReadSharedReq.mshrMisses::cpu0.data      2890899                       # number of ReadSharedReq MSHR misses (Count)
system.l2.ReadSharedReq.mshrMisses::total      2890899                       # number of ReadSharedReq MSHR misses (Count)
system.l2.ReadSharedReq.mshrMissLatency::cpu0.data 267911961995                       # number of ReadSharedReq MSHR miss ticks (Tick)
system.l2.ReadSharedReq.mshrMissLatency::total 267911961995                       # number of ReadSharedReq MSHR miss ticks (Tick)
system.l2.ReadSharedReq.mshrMissRate::cpu0.data     0.096797                       # mshr miss rate for ReadSharedReq accesses (Ratio)
system.l2.ReadSharedReq.mshrMissRate::total     0.096797                       # mshr miss rate for ReadSharedReq accesses (Ratio)
system.l2.ReadSharedReq.avgMshrMissLatency::cpu0.data 92674.272603                       # average ReadSharedReq mshr miss latency ((Tick/Count))
system.l2.ReadSharedReq.avgMshrMissLatency::total 92674.272603                       # average ReadSharedReq mshr miss latency ((Tick/Count))
system.l2.WritebackClean.hits::writebacks        11891                       # number of WritebackClean hits (Count)
system.l2.WritebackClean.hits::total            11891                       # number of WritebackClean hits (Count)
system.l2.WritebackClean.accesses::writebacks        11891                       # number of WritebackClean accesses(hits+misses) (Count)
system.l2.WritebackClean.accesses::total        11891                       # number of WritebackClean accesses(hits+misses) (Count)
system.l2.WritebackDirty.hits::writebacks      2323231                       # number of WritebackDirty hits (Count)
system.l2.WritebackDirty.hits::total          2323231                       # number of WritebackDirty hits (Count)
system.l2.WritebackDirty.accesses::writebacks      2323231                       # number of WritebackDirty accesses(hits+misses) (Count)
system.l2.WritebackDirty.accesses::total      2323231                       # number of WritebackDirty accesses(hits+misses) (Count)
system.l2.power_state.pwrStateResidencyTicks::UNDEFINED 6572082563354                       # Cumulative time (in ticks) in various power states (Tick)
system.l2.tags.tagsInUse                  8189.992106                       # Average ticks per tags in use ((Tick/Count))
system.l2.tags.totalRefs                     61983813                       # Total number of references to valid blocks. (Count)
system.l2.tags.sampledRefs                    3975598                       # Sample count of references to valid blocks. (Count)
system.l2.tags.avgRefs                      15.591067                       # Average number of references to valid blocks. ((Count/Count))
system.l2.tags.warmupTick                      430000                       # The tick when the warmup percentage was hit. (Tick)
system.l2.tags.occupancies::writebacks       2.163028                       # Average occupied blocks per tick, per requestor ((Count/Tick))
system.l2.tags.occupancies::cpu0.inst        1.258998                       # Average occupied blocks per tick, per requestor ((Count/Tick))
system.l2.tags.occupancies::cpu0.data     8186.570081                       # Average occupied blocks per tick, per requestor ((Count/Tick))
system.l2.tags.avgOccs::writebacks           0.000264                       # Average percentage of cache occupancy ((Ratio/Tick))
system.l2.tags.avgOccs::cpu0.inst            0.000154                       # Average percentage of cache occupancy ((Ratio/Tick))
system.l2.tags.avgOccs::cpu0.data            0.999337                       # Average percentage of cache occupancy ((Ratio/Tick))
system.l2.tags.avgOccs::total                0.999755                       # Average percentage of cache occupancy ((Ratio/Tick))
system.l2.tags.occupanciesTaskId::1024           8192                       # Occupied blocks per task id (Count)
system.l2.tags.ageTaskId_1024::0                   12                       # Occupied blocks per task id, per block age (Count)
system.l2.tags.ageTaskId_1024::1                  135                       # Occupied blocks per task id, per block age (Count)
system.l2.tags.ageTaskId_1024::2                  809                       # Occupied blocks per task id, per block age (Count)
system.l2.tags.ageTaskId_1024::3                 5033                       # Occupied blocks per task id, per block age (Count)
system.l2.tags.ageTaskId_1024::4                 2203                       # Occupied blocks per task id, per block age (Count)
system.l2.tags.ratioOccsTaskId::1024                1                       # Ratio of occupied blocks and all blocks, per task id (Ratio)
system.l2.tags.tagAccesses                  499848550                       # Number of tag accesses (Count)
system.l2.tags.dataAccesses                 499848550                       # Number of data accesses (Count)
system.l2.tags.power_state.pwrStateResidencyTicks::UNDEFINED 6572082563354                       # Cumulative time (in ticks) in various power states (Tick)
system.mem_ctrls.bytesRead::cpu0.inst          101952                       # Number of bytes read from this memory (Byte)
system.mem_ctrls.bytesRead::cpu0.data       254240832                       # Number of bytes read from this memory (Byte)
system.mem_ctrls.bytesRead::total           254342784                       # Number of bytes read from this memory (Byte)
system.mem_ctrls.bytesInstRead::cpu0.inst       101952                       # Number of instructions bytes read from this memory (Byte)
system.mem_ctrls.bytesInstRead::total          101952                       # Number of instructions bytes read from this memory (Byte)
system.mem_ctrls.bytesWritten::writebacks     73151744                       # Number of bytes written to this memory (Byte)
system.mem_ctrls.bytesWritten::total         73151744                       # Number of bytes written to this memory (Byte)
system.mem_ctrls.numReads::cpu0.inst             1593                       # Number of read requests responded to by this memory (Count)
system.mem_ctrls.numReads::cpu0.data          3972513                       # Number of read requests responded to by this memory (Count)
system.mem_ctrls.numReads::total              3974106                       # Number of read requests responded to by this memory (Count)
system.mem_ctrls.numWrites::writebacks        1142996                       # Number of write requests responded to by this memory (Count)
system.mem_ctrls.numWrites::total             1142996                       # Number of write requests responded to by this memory (Count)
system.mem_ctrls.bwRead::cpu0.inst              15513                       # Total read bandwidth from this memory ((Byte/Second))
system.mem_ctrls.bwRead::cpu0.data           38684972                       # Total read bandwidth from this memory ((Byte/Second))
system.mem_ctrls.bwRead::total               38700485                       # Total read bandwidth from this memory ((Byte/Second))
system.mem_ctrls.bwInstRead::cpu0.inst          15513                       # Instruction read bandwidth from this memory ((Byte/Second))
system.mem_ctrls.bwInstRead::total              15513                       # Instruction read bandwidth from this memory ((Byte/Second))
system.mem_ctrls.bwWrite::writebacks         11130679                       # Write bandwidth from this memory ((Byte/Second))
system.mem_ctrls.bwWrite::total              11130679                       # Write bandwidth from this memory ((Byte/Second))
system.mem_ctrls.bwTotal::writebacks         11130679                       # Total bandwidth to/from this memory ((Byte/Second))
system.mem_ctrls.bwTotal::cpu0.inst             15513                       # Total bandwidth to/from this memory ((Byte/Second))
system.mem_ctrls.bwTotal::cpu0.data          38684972                       # Total bandwidth to/from this memory ((Byte/Second))
system.mem_ctrls.bwTotal::total              49831165                       # Total bandwidth to/from this memory ((Byte/Second))
system.mem_ctrls.power_state.pwrStateResidencyTicks::UNDEFINED 6572082563354                       # Cumulative time (in ticks) in various power states (Tick)
system.membus.transDist::ReadResp             2892492                       # Transaction distribution (Count)
system.membus.transDist::WritebackDirty       1142996                       # Transaction distribution (Count)
system.membus.transDist::CleanEvict           2822266                       # Transaction distribution (Count)
system.membus.transDist::ReadExReq            1081614                       # Transaction distribution (Count)
system.membus.transDist::ReadExResp           1081614                       # Transaction distribution (Count)
system.membus.transDist::ReadSharedReq        2892492                       # Transaction distribution (Count)
system.membus.pktCount_system.l2.mem_side_port::system.mem_ctrls.port     11913474                       # Packet count per connected requestor and responder (Count)
system.membus.pktCount::total                11913474                       # Packet count per connected requestor and responder (Count)
system.membus.pktSize_system.l2.mem_side_port::system.mem_ctrls.port    327494528                       # Cumulative packet size per connected requestor and responder (Byte)
system.membus.pktSize::total                327494528                       # Cumulative packet size per connected requestor and responder (Byte)
system.membus.snoops                                0                       # Total snoops (Count)
system.membus.snoopTraffic                          0                       # Total snoop traffic (Byte)
system.membus.snoopFanout::samples            3974106                       # Request fanout histogram (Count)
system.membus.snoopFanout::mean                     0                       # Request fanout histogram (Count)
system.membus.snoopFanout::stdev                    0                       # Request fanout histogram (Count)
system.membus.snoopFanout::underflows               0      0.00%      0.00% # Request fanout histogram (Count)
system.membus.snoopFanout::0                  3974106    100.00%    100.00% # Request fanout histogram (Count)
system.membus.snoopFanout::1                        0      0.00%    100.00% # Request fanout histogram (Count)
system.membus.snoopFanout::overflows                0      0.00%    100.00% # Request fanout histogram (Count)
system.membus.snoopFanout::min_value                0                       # Request fanout histogram (Count)
system.membus.snoopFanout::max_value                0                       # Request fanout histogram (Count)
system.membus.snoopFanout::total              3974106                       # Request fanout histogram (Count)
system.membus.power_state.pwrStateResidencyTicks::UNDEFINED 6572082563354                       # Cumulative time (in ticks) in various power states (Tick)
system.membus.reqLayer0.occupancy         36853437929                       # Layer occupancy (ticks) (Tick)
system.membus.reqLayer0.utilization               0.0                       # Layer utilization (Ratio)
system.membus.respLayer1.occupancy        53354444846                       # Layer occupancy (ticks) (Tick)
system.membus.respLayer1.utilization              0.0                       # Layer utilization (Ratio)
system.membus.snoop_filter.totRequests        7939368                       # Total number of requests made to the snoop filter. (Count)
system.membus.snoop_filter.hitSingleRequests      3965629                       # Number of requests hitting in the snoop filter with a single holder of the requested data. (Count)
system.membus.snoop_filter.hitMultiRequests            0                       # Number of requests hitting in the snoop filter with multiple (>1) holders of the requested data. (Count)
system.membus.snoop_filter.totSnoops                0                       # Total number of snoops made to the snoop filter. (Count)
system.membus.snoop_filter.hitSingleSnoops            0                       # Number of snoops hitting in the snoop filter with a single holder of the requested data. (Count)
system.membus.snoop_filter.hitMultiSnoops            0                       # Number of snoops hitting in the snoop filter with multiple (>1) holders of the requested data. (Count)
system.tol2bus.transDist::ReadResp           29877965                       # Transaction distribution (Count)
system.tol2bus.transDist::WritebackDirty      3466227                       # Transaction distribution (Count)
system.tol2bus.transDist::WritebackClean        12018                       # Transaction distribution (Count)
system.tol2bus.transDist::CleanEvict         31521292                       # Transaction distribution (Count)
system.tol2bus.transDist::ReadExReq           1155189                       # Transaction distribution (Count)
system.tol2bus.transDist::ReadExResp          1155189                       # Transaction distribution (Count)
system.tol2bus.transDist::ReadCleanReq          12529                       # Transaction distribution (Count)
system.tol2bus.transDist::ReadSharedReq      29865436                       # Transaction distribution (Count)
system.tol2bus.pktCount_system.cpu0.icache.mem_side_port::system.l2.cpu_side_port        37076                       # Packet count per connected requestor and responder (Count)
system.tol2bus.pktCount_system.cpu0.dcache.mem_side_port::system.l2.cpu_side_port     93061363                       # Packet count per connected requestor and responder (Count)
system.tol2bus.pktCount::total               93098439                       # Packet count per connected requestor and responder (Count)
system.tol2bus.pktSize_system.cpu0.icache.mem_side_port::system.l2.cpu_side_port      1571008                       # Cumulative packet size per connected requestor and responder (Byte)
system.tol2bus.pktSize_system.cpu0.dcache.mem_side_port::system.l2.cpu_side_port   2134006784                       # Cumulative packet size per connected requestor and responder (Byte)
system.tol2bus.pktSize::total              2135577792                       # Cumulative packet size per connected requestor and responder (Byte)
system.tol2bus.snoops                         3967406                       # Total snoops (Count)
system.tol2bus.snoopTraffic                  73151744                       # Total snoop traffic (Byte)
system.tol2bus.snoopFanout::samples          35000560                       # Request fanout histogram (Count)
system.tol2bus.snoopFanout::mean             0.002396                       # Request fanout histogram (Count)
system.tol2bus.snoopFanout::stdev            0.049047                       # Request fanout histogram (Count)
system.tol2bus.snoopFanout::underflows              0      0.00%      0.00% # Request fanout histogram (Count)
system.tol2bus.snoopFanout::0                34916982     99.76%     99.76% # Request fanout histogram (Count)
system.tol2bus.snoopFanout::1                   83305      0.24%    100.00% # Request fanout histogram (Count)
system.tol2bus.snoopFanout::2                     273      0.00%    100.00% # Request fanout histogram (Count)
system.tol2bus.snoopFanout::3                       0      0.00%    100.00% # Request fanout histogram (Count)
system.tol2bus.snoopFanout::4                       0      0.00%    100.00% # Request fanout histogram (Count)
system.tol2bus.snoopFanout::5                       0      0.00%    100.00% # Request fanout histogram (Count)
system.tol2bus.snoopFanout::6                       0      0.00%    100.00% # Request fanout histogram (Count)
system.tol2bus.snoopFanout::7                       0      0.00%    100.00% # Request fanout histogram (Count)
system.tol2bus.snoopFanout::8                       0      0.00%    100.00% # Request fanout histogram (Count)
system.tol2bus.snoopFanout::overflows               0      0.00%    100.00% # Request fanout histogram (Count)
system.tol2bus.snoopFanout::min_value               0                       # Request fanout histogram (Count)
system.tol2bus.snoopFanout::max_value               2                       # Request fanout histogram (Count)
system.tol2bus.snoopFanout::total            35000560                       # Request fanout histogram (Count)
system.tol2bus.power_state.pwrStateResidencyTicks::UNDEFINED 6572082563354                       # Cumulative time (in ticks) in various power states (Tick)
system.tol2bus.reqLayer0.occupancy        55590907239                       # Layer occupancy (ticks) (Tick)
system.tol2bus.reqLayer0.utilization              0.0                       # Layer utilization (Ratio)
system.tol2bus.respLayer0.occupancy          31313299                       # Layer occupancy (ticks) (Tick)
system.tol2bus.respLayer0.utilization             0.0                       # Layer utilization (Ratio)
system.tol2bus.respLayer1.occupancy       77520572659                       # Layer occupancy (ticks) (Tick)
system.tol2bus.respLayer1.utilization             0.0                       # Layer utilization (Ratio)
system.tol2bus.snoop_filter.totRequests      62065285                       # Total number of requests made to the snoop filter. (Count)
system.tol2bus.snoop_filter.hitSingleRequests     31032135                       # Number of requests hitting in the snoop filter with a single holder of the requested data. (Count)
system.tol2bus.snoop_filter.hitMultiRequests        81166                       # Number of requests hitting in the snoop filter with multiple (>1) holders of the requested data. (Count)
system.tol2bus.snoop_filter.totSnoops            2408                       # Total number of snoops made to the snoop filter. (Count)
system.tol2bus.snoop_filter.hitSingleSnoops         2135                       # Number of snoops hitting in the snoop filter with a single holder of the requested data. (Count)
system.tol2bus.snoop_filter.hitMultiSnoops          273                       # Number of snoops hitting in the snoop filter with multiple (>1) holders of the requested data. (Count)
system.voltage_domain.voltage                       1                       # Voltage in Volts (Volt)
system.workload.inst.arm                            0                       # number of arm instructions executed (Count)
system.workload.inst.quiesce                        0                       # number of quiesce instructions executed (Count)
system.cpu0.idleCycles                     1294179308                       # Total number of cycles that the object has spent stopped (Unspecified)
system.cpu0.tickCycles                     6595475630                       # Number of cycles that the object actually ticked (Unspecified)
system.cpu1.idleCycles                              0                       # Total number of cycles that the object has spent stopped (Unspecified)
system.cpu1.tickCycles                              2                       # Number of cycles that the object actually ticked (Unspecified)
system.cpu2.idleCycles                              0                       # Total number of cycles that the object has spent stopped (Unspecified)
system.cpu2.tickCycles                              2                       # Number of cycles that the object actually ticked (Unspecified)
system.cpu3.idleCycles                              0                       # Total number of cycles that the object has spent stopped (Unspecified)
system.cpu3.tickCycles                              2                       # Number of cycles that the object actually ticked (Unspecified)

---------- End Simulation Statistics   ----------
