
---------- Begin Simulation Statistics ----------
simSeconds                                   0.783681                       # Number of seconds simulated (Second)
simTicks                                 783681333677                       # Number of ticks simulated (Tick)
finalTick                                783681333677                       # Number of ticks from beginning of simulation (restored from checkpoints and never reset) (Tick)
simFreq                                  1000000000000                       # The number of ticks per simulated second ((Tick/Second))
hostSeconds                                   2870.54                       # Real time elapsed on the host (Second)
hostTickRate                                273008238                       # The number of ticks simulated per host second (ticks/s) ((Tick/Second))
hostMemory                                    5612432                       # Number of bytes of host memory used (Byte)
simInsts                                    340981432                       # Number of instructions simulated (Count)
simOps                                      672234718                       # Number of ops (including micro ops) simulated (Count)
hostInstRate                                   118786                       # Simulator instruction rate (inst/s) ((Count/Second))
hostOpRate                                     234184                       # Simulator op (including micro ops) rate (op/s) ((Count/Second))
system.clk_domain.clock                          2500                       # Clock period in ticks (Tick)
system.cpu.numCycles                       2503774230                       # Number of cpu cycles simulated (Cycle)
system.cpu.cpi                               7.342846                       # CPI: cycles per instruction (core level) ((Cycle/Count))
system.cpu.ipc                               0.136187                       # IPC: instructions per cycle (core level) ((Count/Cycle))
system.cpu.numWorkItemsStarted                      0                       # Number of work items this cpu started (Count)
system.cpu.numWorkItemsCompleted                    0                       # Number of work items this cpu completed (Count)
system.cpu.instsAdded                       673490424                       # Number of instructions added to the IQ (excludes non-spec) (Count)
system.cpu.nonSpecInstsAdded                      957                       # Number of non-speculative instructions added to the IQ (Count)
system.cpu.instsIssued                      673335101                       # Number of instructions issued (Count)
system.cpu.squashedInstsIssued                   1868                       # Number of squashed instructions issued (Count)
system.cpu.squashedInstsExamined              1256657                       # Number of squashed instructions iterated over during squash; mainly for profiling (Count)
system.cpu.squashedOperandsExamined           1009499                       # Number of squashed operands that are examined and possibly removed from graph (Count)
system.cpu.squashedNonSpecRemoved                 264                       # Number of squashed non-spec instructions that were removed (Count)
system.cpu.numIssuedDist::samples          2440669431                       # Number of insts issued each cycle (Count)
system.cpu.numIssuedDist::mean               0.275881                       # Number of insts issued each cycle (Count)
system.cpu.numIssuedDist::stdev              1.183048                       # Number of insts issued each cycle (Count)
system.cpu.numIssuedDist::underflows                0      0.00%      0.00% # Number of insts issued each cycle (Count)
system.cpu.numIssuedDist::0                2279417242     93.39%     93.39% # Number of insts issued each cycle (Count)
system.cpu.numIssuedDist::1                  28399116      1.16%     94.56% # Number of insts issued each cycle (Count)
system.cpu.numIssuedDist::2                  14217593      0.58%     95.14% # Number of insts issued each cycle (Count)
system.cpu.numIssuedDist::3                  28436334      1.17%     96.30% # Number of insts issued each cycle (Count)
system.cpu.numIssuedDist::4                  14399684      0.59%     96.89% # Number of insts issued each cycle (Count)
system.cpu.numIssuedDist::5                  19036120      0.78%     97.67% # Number of insts issued each cycle (Count)
system.cpu.numIssuedDist::6                  28398104      1.16%     98.84% # Number of insts issued each cycle (Count)
system.cpu.numIssuedDist::7                  18898067      0.77%     99.61% # Number of insts issued each cycle (Count)
system.cpu.numIssuedDist::8                   9467171      0.39%    100.00% # Number of insts issued each cycle (Count)
system.cpu.numIssuedDist::overflows                 0      0.00%    100.00% # Number of insts issued each cycle (Count)
system.cpu.numIssuedDist::min_value                 0                       # Number of insts issued each cycle (Count)
system.cpu.numIssuedDist::max_value                 8                       # Number of insts issued each cycle (Count)
system.cpu.numIssuedDist::total            2440669431                       # Number of insts issued each cycle (Count)
system.cpu.statFuBusy::No_OpClass                   0      0.00%      0.00% # attempts to use FU when none available (Count)
system.cpu.statFuBusy::IntAlu                 9503473     99.96%     99.96% # attempts to use FU when none available (Count)
system.cpu.statFuBusy::IntMult                      0      0.00%     99.96% # attempts to use FU when none available (Count)
system.cpu.statFuBusy::IntDiv                       0      0.00%     99.96% # attempts to use FU when none available (Count)
system.cpu.statFuBusy::FloatAdd                     0      0.00%     99.96% # attempts to use FU when none available (Count)
system.cpu.statFuBusy::FloatCmp                     0      0.00%     99.96% # attempts to use FU when none available (Count)
system.cpu.statFuBusy::FloatCvt                     3      0.00%     99.96% # attempts to use FU when none available (Count)
system.cpu.statFuBusy::FloatMult                    0      0.00%     99.96% # attempts to use FU when none available (Count)
system.cpu.statFuBusy::FloatMultAcc                 0      0.00%     99.96% # attempts to use FU when none available (Count)
system.cpu.statFuBusy::FloatDiv                     0      0.00%     99.96% # attempts to use FU when none available (Count)
system.cpu.statFuBusy::FloatMisc                    0      0.00%     99.96% # attempts to use FU when none available (Count)
system.cpu.statFuBusy::FloatSqrt                    0      0.00%     99.96% # attempts to use FU when none available (Count)
system.cpu.statFuBusy::SimdAdd                      0      0.00%     99.96% # attempts to use FU when none available (Count)
system.cpu.statFuBusy::SimdAddAcc                   0      0.00%     99.96% # attempts to use FU when none available (Count)
system.cpu.statFuBusy::SimdAlu                     38      0.00%     99.96% # attempts to use FU when none available (Count)
system.cpu.statFuBusy::SimdCmp                      0      0.00%     99.96% # attempts to use FU when none available (Count)
system.cpu.statFuBusy::SimdCvt                      7      0.00%     99.96% # attempts to use FU when none available (Count)
system.cpu.statFuBusy::SimdMisc                     3      0.00%     99.96% # attempts to use FU when none available (Count)
system.cpu.statFuBusy::SimdMult                     0      0.00%     99.96% # attempts to use FU when none available (Count)
system.cpu.statFuBusy::SimdMultAcc                  0      0.00%     99.96% # attempts to use FU when none available (Count)
system.cpu.statFuBusy::SimdMatMultAcc               0      0.00%     99.96% # attempts to use FU when none available (Count)
system.cpu.statFuBusy::SimdShift                    0      0.00%     99.96% # attempts to use FU when none available (Count)
system.cpu.statFuBusy::SimdShiftAcc                 0      0.00%     99.96% # attempts to use FU when none available (Count)
system.cpu.statFuBusy::SimdDiv                      0      0.00%     99.96% # attempts to use FU when none available (Count)
system.cpu.statFuBusy::SimdSqrt                     0      0.00%     99.96% # attempts to use FU when none available (Count)
system.cpu.statFuBusy::SimdFloatAdd                 0      0.00%     99.96% # attempts to use FU when none available (Count)
system.cpu.statFuBusy::SimdFloatAlu                 0      0.00%     99.96% # attempts to use FU when none available (Count)
system.cpu.statFuBusy::SimdFloatCmp                 0      0.00%     99.96% # attempts to use FU when none available (Count)
system.cpu.statFuBusy::SimdFloatCvt                 1      0.00%     99.96% # attempts to use FU when none available (Count)
system.cpu.statFuBusy::SimdFloatDiv                 0      0.00%     99.96% # attempts to use FU when none available (Count)
system.cpu.statFuBusy::SimdFloatMisc                0      0.00%     99.96% # attempts to use FU when none available (Count)
system.cpu.statFuBusy::SimdFloatMult                0      0.00%     99.96% # attempts to use FU when none available (Count)
system.cpu.statFuBusy::SimdFloatMultAcc             0      0.00%     99.96% # attempts to use FU when none available (Count)
system.cpu.statFuBusy::SimdFloatMatMultAcc            0      0.00%     99.96% # attempts to use FU when none available (Count)
system.cpu.statFuBusy::SimdFloatSqrt                0      0.00%     99.96% # attempts to use FU when none available (Count)
system.cpu.statFuBusy::SimdReduceAdd                0      0.00%     99.96% # attempts to use FU when none available (Count)
system.cpu.statFuBusy::SimdReduceAlu                0      0.00%     99.96% # attempts to use FU when none available (Count)
system.cpu.statFuBusy::SimdReduceCmp                0      0.00%     99.96% # attempts to use FU when none available (Count)
system.cpu.statFuBusy::SimdFloatReduceAdd            0      0.00%     99.96% # attempts to use FU when none available (Count)
system.cpu.statFuBusy::SimdFloatReduceCmp            0      0.00%     99.96% # attempts to use FU when none available (Count)
system.cpu.statFuBusy::SimdAes                      0      0.00%     99.96% # attempts to use FU when none available (Count)
system.cpu.statFuBusy::SimdAesMix                   0      0.00%     99.96% # attempts to use FU when none available (Count)
system.cpu.statFuBusy::SimdSha1Hash                 0      0.00%     99.96% # attempts to use FU when none available (Count)
system.cpu.statFuBusy::SimdSha1Hash2                0      0.00%     99.96% # attempts to use FU when none available (Count)
system.cpu.statFuBusy::SimdSha256Hash               0      0.00%     99.96% # attempts to use FU when none available (Count)
system.cpu.statFuBusy::SimdSha256Hash2              0      0.00%     99.96% # attempts to use FU when none available (Count)
system.cpu.statFuBusy::SimdShaSigma2                0      0.00%     99.96% # attempts to use FU when none available (Count)
system.cpu.statFuBusy::SimdShaSigma3                0      0.00%     99.96% # attempts to use FU when none available (Count)
system.cpu.statFuBusy::SimdPredAlu                  0      0.00%     99.96% # attempts to use FU when none available (Count)
system.cpu.statFuBusy::Matrix                       0      0.00%     99.96% # attempts to use FU when none available (Count)
system.cpu.statFuBusy::MatrixMov                    0      0.00%     99.96% # attempts to use FU when none available (Count)
system.cpu.statFuBusy::MatrixOP                     0      0.00%     99.96% # attempts to use FU when none available (Count)
system.cpu.statFuBusy::MemRead                   2080      0.02%     99.98% # attempts to use FU when none available (Count)
system.cpu.statFuBusy::MemWrite                  1547      0.02%    100.00% # attempts to use FU when none available (Count)
system.cpu.statFuBusy::FloatMemRead               107      0.00%    100.00% # attempts to use FU when none available (Count)
system.cpu.statFuBusy::FloatMemWrite               14      0.00%    100.00% # attempts to use FU when none available (Count)
system.cpu.statFuBusy::IprAccess                    0      0.00%    100.00% # attempts to use FU when none available (Count)
system.cpu.statFuBusy::InstPrefetch                 0      0.00%    100.00% # attempts to use FU when none available (Count)
system.cpu.statFuBusy::SimdUnitStrideLoad            0      0.00%    100.00% # attempts to use FU when none available (Count)
system.cpu.statFuBusy::SimdUnitStrideStore            0      0.00%    100.00% # attempts to use FU when none available (Count)
system.cpu.statFuBusy::SimdUnitStrideMaskLoad            0      0.00%    100.00% # attempts to use FU when none available (Count)
system.cpu.statFuBusy::SimdUnitStrideMaskStore            0      0.00%    100.00% # attempts to use FU when none available (Count)
system.cpu.statFuBusy::SimdStridedLoad              0      0.00%    100.00% # attempts to use FU when none available (Count)
system.cpu.statFuBusy::SimdStridedStore             0      0.00%    100.00% # attempts to use FU when none available (Count)
system.cpu.statFuBusy::SimdIndexedLoad              0      0.00%    100.00% # attempts to use FU when none available (Count)
system.cpu.statFuBusy::SimdIndexedStore             0      0.00%    100.00% # attempts to use FU when none available (Count)
system.cpu.statFuBusy::SimdWholeRegisterLoad            0      0.00%    100.00% # attempts to use FU when none available (Count)
system.cpu.statFuBusy::SimdWholeRegisterStore            0      0.00%    100.00% # attempts to use FU when none available (Count)
system.cpu.statFuBusy::SimdUnitStrideFaultOnlyFirstLoad            0      0.00%    100.00% # attempts to use FU when none available (Count)
system.cpu.statFuBusy::SimdUnitStrideSegmentedLoad            0      0.00%    100.00% # attempts to use FU when none available (Count)
system.cpu.statFuBusy::SimdUnitStrideSegmentedStore            0      0.00%    100.00% # attempts to use FU when none available (Count)
system.cpu.statFuBusy::SimdExt                      0      0.00%    100.00% # attempts to use FU when none available (Count)
system.cpu.statFuBusy::SimdFloatExt                 0      0.00%    100.00% # attempts to use FU when none available (Count)
system.cpu.statFuBusy::SimdConfig                   0      0.00%    100.00% # attempts to use FU when none available (Count)
system.cpu.statIssuedInstType_0::No_OpClass         5529      0.00%      0.00% # Number of instructions issued per FU type, per thread (Count)
system.cpu.statIssuedInstType_0::IntAlu     511910746     76.03%     76.03% # Number of instructions issued per FU type, per thread (Count)
system.cpu.statIssuedInstType_0::IntMult         8691      0.00%     76.03% # Number of instructions issued per FU type, per thread (Count)
system.cpu.statIssuedInstType_0::IntDiv          4394      0.00%     76.03% # Number of instructions issued per FU type, per thread (Count)
system.cpu.statIssuedInstType_0::FloatAdd        41767      0.01%     76.04% # Number of instructions issued per FU type, per thread (Count)
system.cpu.statIssuedInstType_0::FloatCmp            0      0.00%     76.04% # Number of instructions issued per FU type, per thread (Count)
system.cpu.statIssuedInstType_0::FloatCvt          502      0.00%     76.04% # Number of instructions issued per FU type, per thread (Count)
system.cpu.statIssuedInstType_0::FloatMult            0      0.00%     76.04% # Number of instructions issued per FU type, per thread (Count)
system.cpu.statIssuedInstType_0::FloatMultAcc            0      0.00%     76.04% # Number of instructions issued per FU type, per thread (Count)
system.cpu.statIssuedInstType_0::FloatDiv            0      0.00%     76.04% # Number of instructions issued per FU type, per thread (Count)
system.cpu.statIssuedInstType_0::FloatMisc            0      0.00%     76.04% # Number of instructions issued per FU type, per thread (Count)
system.cpu.statIssuedInstType_0::FloatSqrt            0      0.00%     76.04% # Number of instructions issued per FU type, per thread (Count)
system.cpu.statIssuedInstType_0::SimdAdd           16      0.00%     76.04% # Number of instructions issued per FU type, per thread (Count)
system.cpu.statIssuedInstType_0::SimdAddAcc            0      0.00%     76.04% # Number of instructions issued per FU type, per thread (Count)
system.cpu.statIssuedInstType_0::SimdAlu        18187      0.00%     76.04% # Number of instructions issued per FU type, per thread (Count)
system.cpu.statIssuedInstType_0::SimdCmp            0      0.00%     76.04% # Number of instructions issued per FU type, per thread (Count)
system.cpu.statIssuedInstType_0::SimdCvt          592      0.00%     76.04% # Number of instructions issued per FU type, per thread (Count)
system.cpu.statIssuedInstType_0::SimdMisc        14137      0.00%     76.04% # Number of instructions issued per FU type, per thread (Count)
system.cpu.statIssuedInstType_0::SimdMult            0      0.00%     76.04% # Number of instructions issued per FU type, per thread (Count)
system.cpu.statIssuedInstType_0::SimdMultAcc            0      0.00%     76.04% # Number of instructions issued per FU type, per thread (Count)
system.cpu.statIssuedInstType_0::SimdMatMultAcc            0      0.00%     76.04% # Number of instructions issued per FU type, per thread (Count)
system.cpu.statIssuedInstType_0::SimdShift            0      0.00%     76.04% # Number of instructions issued per FU type, per thread (Count)
system.cpu.statIssuedInstType_0::SimdShiftAcc            0      0.00%     76.04% # Number of instructions issued per FU type, per thread (Count)
system.cpu.statIssuedInstType_0::SimdDiv            0      0.00%     76.04% # Number of instructions issued per FU type, per thread (Count)
system.cpu.statIssuedInstType_0::SimdSqrt            0      0.00%     76.04% # Number of instructions issued per FU type, per thread (Count)
system.cpu.statIssuedInstType_0::SimdFloatAdd         8450      0.00%     76.04% # Number of instructions issued per FU type, per thread (Count)
system.cpu.statIssuedInstType_0::SimdFloatAlu            0      0.00%     76.04% # Number of instructions issued per FU type, per thread (Count)
system.cpu.statIssuedInstType_0::SimdFloatCmp            0      0.00%     76.04% # Number of instructions issued per FU type, per thread (Count)
system.cpu.statIssuedInstType_0::SimdFloatCvt        18055      0.00%     76.04% # Number of instructions issued per FU type, per thread (Count)
system.cpu.statIssuedInstType_0::SimdFloatDiv         4225      0.00%     76.04% # Number of instructions issued per FU type, per thread (Count)
system.cpu.statIssuedInstType_0::SimdFloatMisc            0      0.00%     76.04% # Number of instructions issued per FU type, per thread (Count)
system.cpu.statIssuedInstType_0::SimdFloatMult         4609      0.00%     76.05% # Number of instructions issued per FU type, per thread (Count)
system.cpu.statIssuedInstType_0::SimdFloatMultAcc            0      0.00%     76.05% # Number of instructions issued per FU type, per thread (Count)
system.cpu.statIssuedInstType_0::SimdFloatMatMultAcc            0      0.00%     76.05% # Number of instructions issued per FU type, per thread (Count)
system.cpu.statIssuedInstType_0::SimdFloatSqrt            0      0.00%     76.05% # Number of instructions issued per FU type, per thread (Count)
system.cpu.statIssuedInstType_0::SimdReduceAdd            0      0.00%     76.05% # Number of instructions issued per FU type, per thread (Count)
system.cpu.statIssuedInstType_0::SimdReduceAlu            0      0.00%     76.05% # Number of instructions issued per FU type, per thread (Count)
system.cpu.statIssuedInstType_0::SimdReduceCmp            0      0.00%     76.05% # Number of instructions issued per FU type, per thread (Count)
system.cpu.statIssuedInstType_0::SimdFloatReduceAdd            0      0.00%     76.05% # Number of instructions issued per FU type, per thread (Count)
system.cpu.statIssuedInstType_0::SimdFloatReduceCmp            0      0.00%     76.05% # Number of instructions issued per FU type, per thread (Count)
system.cpu.statIssuedInstType_0::SimdAes            0      0.00%     76.05% # Number of instructions issued per FU type, per thread (Count)
system.cpu.statIssuedInstType_0::SimdAesMix            0      0.00%     76.05% # Number of instructions issued per FU type, per thread (Count)
system.cpu.statIssuedInstType_0::SimdSha1Hash            0      0.00%     76.05% # Number of instructions issued per FU type, per thread (Count)
system.cpu.statIssuedInstType_0::SimdSha1Hash2            0      0.00%     76.05% # Number of instructions issued per FU type, per thread (Count)
system.cpu.statIssuedInstType_0::SimdSha256Hash            0      0.00%     76.05% # Number of instructions issued per FU type, per thread (Count)
system.cpu.statIssuedInstType_0::SimdSha256Hash2            0      0.00%     76.05% # Number of instructions issued per FU type, per thread (Count)
system.cpu.statIssuedInstType_0::SimdShaSigma2            0      0.00%     76.05% # Number of instructions issued per FU type, per thread (Count)
system.cpu.statIssuedInstType_0::SimdShaSigma3            0      0.00%     76.05% # Number of instructions issued per FU type, per thread (Count)
system.cpu.statIssuedInstType_0::SimdPredAlu            0      0.00%     76.05% # Number of instructions issued per FU type, per thread (Count)
system.cpu.statIssuedInstType_0::Matrix             0      0.00%     76.05% # Number of instructions issued per FU type, per thread (Count)
system.cpu.statIssuedInstType_0::MatrixMov            0      0.00%     76.05% # Number of instructions issued per FU type, per thread (Count)
system.cpu.statIssuedInstType_0::MatrixOP            0      0.00%     76.05% # Number of instructions issued per FU type, per thread (Count)
system.cpu.statIssuedInstType_0::MemRead    104323330     15.49%     91.54% # Number of instructions issued per FU type, per thread (Count)
system.cpu.statIssuedInstType_0::MemWrite     56904177      8.45%     99.99% # Number of instructions issued per FU type, per thread (Count)
system.cpu.statIssuedInstType_0::FloatMemRead        47600      0.01%    100.00% # Number of instructions issued per FU type, per thread (Count)
system.cpu.statIssuedInstType_0::FloatMemWrite        20094      0.00%    100.00% # Number of instructions issued per FU type, per thread (Count)
system.cpu.statIssuedInstType_0::IprAccess            0      0.00%    100.00% # Number of instructions issued per FU type, per thread (Count)
system.cpu.statIssuedInstType_0::InstPrefetch            0      0.00%    100.00% # Number of instructions issued per FU type, per thread (Count)
system.cpu.statIssuedInstType_0::SimdUnitStrideLoad            0      0.00%    100.00% # Number of instructions issued per FU type, per thread (Count)
system.cpu.statIssuedInstType_0::SimdUnitStrideStore            0      0.00%    100.00% # Number of instructions issued per FU type, per thread (Count)
system.cpu.statIssuedInstType_0::SimdUnitStrideMaskLoad            0      0.00%    100.00% # Number of instructions issued per FU type, per thread (Count)
system.cpu.statIssuedInstType_0::SimdUnitStrideMaskStore            0      0.00%    100.00% # Number of instructions issued per FU type, per thread (Count)
system.cpu.statIssuedInstType_0::SimdStridedLoad            0      0.00%    100.00% # Number of instructions issued per FU type, per thread (Count)
system.cpu.statIssuedInstType_0::SimdStridedStore            0      0.00%    100.00% # Number of instructions issued per FU type, per thread (Count)
system.cpu.statIssuedInstType_0::SimdIndexedLoad            0      0.00%    100.00% # Number of instructions issued per FU type, per thread (Count)
system.cpu.statIssuedInstType_0::SimdIndexedStore            0      0.00%    100.00% # Number of instructions issued per FU type, per thread (Count)
system.cpu.statIssuedInstType_0::SimdWholeRegisterLoad            0      0.00%    100.00% # Number of instructions issued per FU type, per thread (Count)
system.cpu.statIssuedInstType_0::SimdWholeRegisterStore            0      0.00%    100.00% # Number of instructions issued per FU type, per thread (Count)
system.cpu.statIssuedInstType_0::SimdUnitStrideFaultOnlyFirstLoad            0      0.00%    100.00% # Number of instructions issued per FU type, per thread (Count)
system.cpu.statIssuedInstType_0::SimdUnitStrideSegmentedLoad            0      0.00%    100.00% # Number of instructions issued per FU type, per thread (Count)
system.cpu.statIssuedInstType_0::SimdUnitStrideSegmentedStore            0      0.00%    100.00% # Number of instructions issued per FU type, per thread (Count)
system.cpu.statIssuedInstType_0::SimdExt            0      0.00%    100.00% # Number of instructions issued per FU type, per thread (Count)
system.cpu.statIssuedInstType_0::SimdFloatExt            0      0.00%    100.00% # Number of instructions issued per FU type, per thread (Count)
system.cpu.statIssuedInstType_0::SimdConfig            0      0.00%    100.00% # Number of instructions issued per FU type, per thread (Count)
system.cpu.statIssuedInstType_0::total      673335101                       # Number of instructions issued per FU type, per thread (Count)
system.cpu.issueRate                         0.268928                       # Inst issue rate ((Count/Cycle))
system.cpu.fuBusy                             9507273                       # FU busy when requested (Count)
system.cpu.fuBusyRate                        0.014120                       # FU busy rate (busy events/executed inst) ((Count/Count))
system.cpu.intInstQueueReads               3796491856                       # Number of integer instruction queue reads (Count)
system.cpu.intInstQueueWrites               674569391                       # Number of integer instruction queue writes (Count)
system.cpu.intInstQueueWakeupAccesses       673049246                       # Number of integer instruction queue wakeup accesses (Count)
system.cpu.fpInstQueueReads                    356918                       # Number of floating instruction queue reads (Count)
system.cpu.fpInstQueueWrites                   179873                       # Number of floating instruction queue writes (Count)
system.cpu.fpInstQueueWakeupAccesses           178166                       # Number of floating instruction queue wakeup accesses (Count)
system.cpu.vecInstQueueReads                        0                       # Number of vector instruction queue reads (Count)
system.cpu.vecInstQueueWrites                       0                       # Number of vector instruction queue writes (Count)
system.cpu.vecInstQueueWakeupAccesses               0                       # Number of vector instruction queue wakeup accesses (Count)
system.cpu.intAluAccesses                   682658315                       # Number of integer alu accesses (Count)
system.cpu.fpAluAccesses                       178530                       # Number of floating point alu accesses (Count)
system.cpu.vecAluAccesses                           0                       # Number of vector alu accesses (Count)
system.cpu.numSquashedInsts                     83802                       # Number of squashed instructions skipped in execute (Count)
system.cpu.numSwp                                   0                       # Number of swp insts executed (Count)
system.cpu.timesIdled                            1935                       # Number of times that the entire CPU went into an idle state and unscheduled itself (Count)
system.cpu.idleCycles                        63104799                       # Total number of cycles that the CPU has spent unscheduled due to idling (Cycle)
system.cpu.MemDepUnit__0.insertedLoads      104392886                       # Number of loads inserted to the mem dependence unit. (Count)
system.cpu.MemDepUnit__0.insertedStores      56930955                       # Number of stores inserted to the mem dependence unit. (Count)
system.cpu.MemDepUnit__0.conflictingLoads      9568247                       # Number of conflicting loads. (Count)
system.cpu.MemDepUnit__0.conflictingStores        27516                       # Number of conflicting stores. (Count)
system.cpu.MemDepUnit__1.insertedLoads              0                       # Number of loads inserted to the mem dependence unit. (Count)
system.cpu.MemDepUnit__1.insertedStores             0                       # Number of stores inserted to the mem dependence unit. (Count)
system.cpu.MemDepUnit__1.conflictingLoads            0                       # Number of conflicting loads. (Count)
system.cpu.MemDepUnit__1.conflictingStores            0                       # Number of conflicting stores. (Count)
system.cpu.MemDepUnit__2.insertedLoads              0                       # Number of loads inserted to the mem dependence unit. (Count)
system.cpu.MemDepUnit__2.insertedStores             0                       # Number of stores inserted to the mem dependence unit. (Count)
system.cpu.MemDepUnit__2.conflictingLoads            0                       # Number of conflicting loads. (Count)
system.cpu.MemDepUnit__2.conflictingStores            0                       # Number of conflicting stores. (Count)
system.cpu.MemDepUnit__3.insertedLoads              0                       # Number of loads inserted to the mem dependence unit. (Count)
system.cpu.MemDepUnit__3.insertedStores             0                       # Number of stores inserted to the mem dependence unit. (Count)
system.cpu.MemDepUnit__3.conflictingLoads            0                       # Number of conflicting loads. (Count)
system.cpu.MemDepUnit__3.conflictingStores            0                       # Number of conflicting stores. (Count)
system.cpu.branchPred.lookups_0::NoBranch            0      0.00%      0.00% # Number of BP lookups (Count)
system.cpu.branchPred.lookups_0::Return      14510286     18.95%     18.95% # Number of BP lookups (Count)
system.cpu.branchPred.lookups_0::CallDirect     14243727     18.60%     37.56% # Number of BP lookups (Count)
system.cpu.branchPred.lookups_0::CallIndirect          668      0.00%     37.56% # Number of BP lookups (Count)
system.cpu.branchPred.lookups_0::DirectCond     43043554     56.22%     93.78% # Number of BP lookups (Count)
system.cpu.branchPred.lookups_0::DirectUncond        22991      0.03%     93.81% # Number of BP lookups (Count)
system.cpu.branchPred.lookups_0::IndirectCond            0      0.00%     93.81% # Number of BP lookups (Count)
system.cpu.branchPred.lookups_0::IndirectUncond      4740569      6.19%    100.00% # Number of BP lookups (Count)
system.cpu.branchPred.lookups_0::total       76561795                       # Number of BP lookups (Count)
system.cpu.branchPred.squashes_0::NoBranch            0      0.00%      0.00% # Number of branches that got squashed (completely removed) as an earlier branch was mispredicted. (Count)
system.cpu.branchPred.squashes_0::Return       313938     39.57%     39.57% # Number of branches that got squashed (completely removed) as an earlier branch was mispredicted. (Count)
system.cpu.branchPred.squashes_0::CallDirect        47822      6.03%     45.60% # Number of branches that got squashed (completely removed) as an earlier branch was mispredicted. (Count)
system.cpu.branchPred.squashes_0::CallIndirect          221      0.03%     45.63% # Number of branches that got squashed (completely removed) as an earlier branch was mispredicted. (Count)
system.cpu.branchPred.squashes_0::DirectCond       409056     51.56%     97.19% # Number of branches that got squashed (completely removed) as an earlier branch was mispredicted. (Count)
system.cpu.branchPred.squashes_0::DirectUncond         5639      0.71%     97.90% # Number of branches that got squashed (completely removed) as an earlier branch was mispredicted. (Count)
system.cpu.branchPred.squashes_0::IndirectCond            0      0.00%     97.90% # Number of branches that got squashed (completely removed) as an earlier branch was mispredicted. (Count)
system.cpu.branchPred.squashes_0::IndirectUncond        16675      2.10%    100.00% # Number of branches that got squashed (completely removed) as an earlier branch was mispredicted. (Count)
system.cpu.branchPred.squashes_0::total        793351                       # Number of branches that got squashed (completely removed) as an earlier branch was mispredicted. (Count)
system.cpu.branchPred.corrected_0::NoBranch            0      0.00%      0.00% # Number of branches that got corrected but not yet commited. Branches get corrected by decode or after execute. Also a branch misprediction can be detected out-of-order. Therefore, a corrected branch might not end up beeing committed in case an even earlier branch was mispredicted (Count)
system.cpu.branchPred.corrected_0::Return           20      0.01%      0.01% # Number of branches that got corrected but not yet commited. Branches get corrected by decode or after execute. Also a branch misprediction can be detected out-of-order. Therefore, a corrected branch might not end up beeing committed in case an even earlier branch was mispredicted (Count)
system.cpu.branchPred.corrected_0::CallDirect          886      0.51%      0.52% # Number of branches that got corrected but not yet commited. Branches get corrected by decode or after execute. Also a branch misprediction can be detected out-of-order. Therefore, a corrected branch might not end up beeing committed in case an even earlier branch was mispredicted (Count)
system.cpu.branchPred.corrected_0::CallIndirect          184      0.11%      0.62% # Number of branches that got corrected but not yet commited. Branches get corrected by decode or after execute. Also a branch misprediction can be detected out-of-order. Therefore, a corrected branch might not end up beeing committed in case an even earlier branch was mispredicted (Count)
system.cpu.branchPred.corrected_0::DirectCond       172666     98.81%     99.43% # Number of branches that got corrected but not yet commited. Branches get corrected by decode or after execute. Also a branch misprediction can be detected out-of-order. Therefore, a corrected branch might not end up beeing committed in case an even earlier branch was mispredicted (Count)
system.cpu.branchPred.corrected_0::DirectUncond          653      0.37%     99.80% # Number of branches that got corrected but not yet commited. Branches get corrected by decode or after execute. Also a branch misprediction can be detected out-of-order. Therefore, a corrected branch might not end up beeing committed in case an even earlier branch was mispredicted (Count)
system.cpu.branchPred.corrected_0::IndirectCond            0      0.00%     99.80% # Number of branches that got corrected but not yet commited. Branches get corrected by decode or after execute. Also a branch misprediction can be detected out-of-order. Therefore, a corrected branch might not end up beeing committed in case an even earlier branch was mispredicted (Count)
system.cpu.branchPred.corrected_0::IndirectUncond          341      0.20%    100.00% # Number of branches that got corrected but not yet commited. Branches get corrected by decode or after execute. Also a branch misprediction can be detected out-of-order. Therefore, a corrected branch might not end up beeing committed in case an even earlier branch was mispredicted (Count)
system.cpu.branchPred.corrected_0::total       174750                       # Number of branches that got corrected but not yet commited. Branches get corrected by decode or after execute. Also a branch misprediction can be detected out-of-order. Therefore, a corrected branch might not end up beeing committed in case an even earlier branch was mispredicted (Count)
system.cpu.branchPred.earlyResteers_0::NoBranch            0                       # Number of branches that got redirected after decode. (Count)
system.cpu.branchPred.earlyResteers_0::Return            0                       # Number of branches that got redirected after decode. (Count)
system.cpu.branchPred.earlyResteers_0::CallDirect            0                       # Number of branches that got redirected after decode. (Count)
system.cpu.branchPred.earlyResteers_0::CallIndirect            0                       # Number of branches that got redirected after decode. (Count)
system.cpu.branchPred.earlyResteers_0::DirectCond            0                       # Number of branches that got redirected after decode. (Count)
system.cpu.branchPred.earlyResteers_0::DirectUncond            0                       # Number of branches that got redirected after decode. (Count)
system.cpu.branchPred.earlyResteers_0::IndirectCond            0                       # Number of branches that got redirected after decode. (Count)
system.cpu.branchPred.earlyResteers_0::IndirectUncond            0                       # Number of branches that got redirected after decode. (Count)
system.cpu.branchPred.earlyResteers_0::total            0                       # Number of branches that got redirected after decode. (Count)
system.cpu.branchPred.committed_0::NoBranch            0      0.00%      0.00% # Number of branches finally committed  (Count)
system.cpu.branchPred.committed_0::Return     14196348     18.74%     18.74% # Number of branches finally committed  (Count)
system.cpu.branchPred.committed_0::CallDirect     14195905     18.74%     37.47% # Number of branches finally committed  (Count)
system.cpu.branchPred.committed_0::CallIndirect          447      0.00%     37.47% # Number of branches finally committed  (Count)
system.cpu.branchPred.committed_0::DirectCond     42634497     56.27%     93.74% # Number of branches finally committed  (Count)
system.cpu.branchPred.committed_0::DirectUncond        17352      0.02%     93.77% # Number of branches finally committed  (Count)
system.cpu.branchPred.committed_0::IndirectCond            0      0.00%     93.77% # Number of branches finally committed  (Count)
system.cpu.branchPred.committed_0::IndirectUncond      4723894      6.23%    100.00% # Number of branches finally committed  (Count)
system.cpu.branchPred.committed_0::total     75768443                       # Number of branches finally committed  (Count)
system.cpu.branchPred.mispredicted_0::NoBranch            0      0.00%      0.00% # Number of committed branches that were mispredicted. (Count)
system.cpu.branchPred.mispredicted_0::Return           11      0.01%      0.01% # Number of committed branches that were mispredicted. (Count)
system.cpu.branchPred.mispredicted_0::CallDirect          657      0.38%      0.39% # Number of committed branches that were mispredicted. (Count)
system.cpu.branchPred.mispredicted_0::CallIndirect          168      0.10%      0.48% # Number of committed branches that were mispredicted. (Count)
system.cpu.branchPred.mispredicted_0::DirectCond       171322     99.15%     99.64% # Number of committed branches that were mispredicted. (Count)
system.cpu.branchPred.mispredicted_0::DirectUncond          315      0.18%     99.82% # Number of committed branches that were mispredicted. (Count)
system.cpu.branchPred.mispredicted_0::IndirectCond            0      0.00%     99.82% # Number of committed branches that were mispredicted. (Count)
system.cpu.branchPred.mispredicted_0::IndirectUncond          312      0.18%    100.00% # Number of committed branches that were mispredicted. (Count)
system.cpu.branchPred.mispredicted_0::total       172785                       # Number of committed branches that were mispredicted. (Count)
system.cpu.branchPred.targetProvider_0::NoTarget     28592931     37.35%     37.35% # The component providing the target for taken branches (Count)
system.cpu.branchPred.targetProvider_0::BTB     28719496     37.51%     74.86% # The component providing the target for taken branches (Count)
system.cpu.branchPred.targetProvider_0::RAS     14510277     18.95%     93.81% # The component providing the target for taken branches (Count)
system.cpu.branchPred.targetProvider_0::Indirect      4739091      6.19%    100.00% # The component providing the target for taken branches (Count)
system.cpu.branchPred.targetProvider_0::total     76561795                       # The component providing the target for taken branches (Count)
system.cpu.branchPred.targetWrong_0::NoBranch       159184     91.24%     91.24% # Number of branches where the target was incorrect or not available at prediction time. (Count)
system.cpu.branchPred.targetWrong_0::Return        15237      8.73%     99.98% # Number of branches where the target was incorrect or not available at prediction time. (Count)
system.cpu.branchPred.targetWrong_0::CallDirect           20      0.01%     99.99% # Number of branches where the target was incorrect or not available at prediction time. (Count)
system.cpu.branchPred.targetWrong_0::CallIndirect           23      0.01%    100.00% # Number of branches where the target was incorrect or not available at prediction time. (Count)
system.cpu.branchPred.targetWrong_0::DirectCond            0      0.00%    100.00% # Number of branches where the target was incorrect or not available at prediction time. (Count)
system.cpu.branchPred.targetWrong_0::DirectUncond            0      0.00%    100.00% # Number of branches where the target was incorrect or not available at prediction time. (Count)
system.cpu.branchPred.targetWrong_0::IndirectCond            0      0.00%    100.00% # Number of branches where the target was incorrect or not available at prediction time. (Count)
system.cpu.branchPred.targetWrong_0::IndirectUncond            0      0.00%    100.00% # Number of branches where the target was incorrect or not available at prediction time. (Count)
system.cpu.branchPred.targetWrong_0::total       174464                       # Number of branches where the target was incorrect or not available at prediction time. (Count)
system.cpu.branchPred.condPredicted          43043554                       # Number of conditional branches predicted (Count)
system.cpu.branchPred.condPredictedTaken     14457438                       # Number of conditional branches predicted as taken (Count)
system.cpu.branchPred.condIncorrect            174750                       # Number of conditional branches incorrect (Count)
system.cpu.branchPred.predTakenBTBMiss           2305                       # Number of branches predicted taken but missed in BTB (Count)
system.cpu.branchPred.NotTakenMispredicted       159486                       # Number branches predicted 'not taken' but turned out to be taken (Count)
system.cpu.branchPred.TakenMispredicted         15264                       # Number branches predicted taken but are actually not taken (Count)
system.cpu.branchPred.BTBLookups             76561795                       # Number of BTB lookups (Count)
system.cpu.branchPred.BTBUpdates               158941                       # Number of BTB updates (Count)
system.cpu.branchPred.BTBHits                33488458                       # Number of BTB hits (Count)
system.cpu.branchPred.BTBHitRatio            0.437404                       # BTB Hit Ratio (Ratio)
system.cpu.branchPred.BTBMispredicted            3061                       # Number BTB mispredictions. No target found or target wrong (Count)
system.cpu.branchPred.indirectLookups         4741237                       # Number of indirect predictor lookups. (Count)
system.cpu.branchPred.indirectHits            4739091                       # Number of indirect target hits. (Count)
system.cpu.branchPred.indirectMisses             2146                       # Number of indirect misses. (Count)
system.cpu.branchPred.indirectMispredicted            0                       # Number of mispredicted indirect branches. (Count)
system.cpu.branchPred.btb.lookups::NoBranch            0      0.00%      0.00% # Number of BTB lookups (Count)
system.cpu.branchPred.btb.lookups::Return     14510286     18.95%     18.95% # Number of BTB lookups (Count)
system.cpu.branchPred.btb.lookups::CallDirect     14243727     18.60%     37.56% # Number of BTB lookups (Count)
system.cpu.branchPred.btb.lookups::CallIndirect          668      0.00%     37.56% # Number of BTB lookups (Count)
system.cpu.branchPred.btb.lookups::DirectCond     43043554     56.22%     93.78% # Number of BTB lookups (Count)
system.cpu.branchPred.btb.lookups::DirectUncond        22991      0.03%     93.81% # Number of BTB lookups (Count)
system.cpu.branchPred.btb.lookups::IndirectCond            0      0.00%     93.81% # Number of BTB lookups (Count)
system.cpu.branchPred.btb.lookups::IndirectUncond      4740569      6.19%    100.00% # Number of BTB lookups (Count)
system.cpu.branchPred.btb.lookups::total     76561795                       # Number of BTB lookups (Count)
system.cpu.branchPred.btb.misses::NoBranch            0      0.00%      0.00% # Number of BTB misses (Count)
system.cpu.branchPred.btb.misses::Return     14510227     33.69%     33.69% # Number of BTB misses (Count)
system.cpu.branchPred.btb.misses::CallDirect         1244      0.00%     33.69% # Number of BTB misses (Count)
system.cpu.branchPred.btb.misses::CallIndirect          521      0.00%     33.69% # Number of BTB misses (Count)
system.cpu.branchPred.btb.misses::DirectCond     23819903     55.30%     88.99% # Number of BTB misses (Count)
system.cpu.branchPred.btb.misses::DirectUncond          873      0.00%     88.99% # Number of BTB misses (Count)
system.cpu.branchPred.btb.misses::IndirectCond            0      0.00%     88.99% # Number of BTB misses (Count)
system.cpu.branchPred.btb.misses::IndirectUncond      4740569     11.01%    100.00% # Number of BTB misses (Count)
system.cpu.branchPred.btb.misses::total      43073337                       # Number of BTB misses (Count)
system.cpu.branchPred.btb.updates::NoBranch            0      0.00%      0.00% # Number of BTB updates (Count)
system.cpu.branchPred.btb.updates::Return            0      0.00%      0.00% # Number of BTB updates (Count)
system.cpu.branchPred.btb.updates::CallDirect          886      0.56%      0.56% # Number of BTB updates (Count)
system.cpu.branchPred.btb.updates::CallIndirect            0      0.00%      0.56% # Number of BTB updates (Count)
system.cpu.branchPred.btb.updates::DirectCond       157402     99.03%     99.59% # Number of BTB updates (Count)
system.cpu.branchPred.btb.updates::DirectUncond          653      0.41%    100.00% # Number of BTB updates (Count)
system.cpu.branchPred.btb.updates::IndirectCond            0      0.00%    100.00% # Number of BTB updates (Count)
system.cpu.branchPred.btb.updates::IndirectUncond            0      0.00%    100.00% # Number of BTB updates (Count)
system.cpu.branchPred.btb.updates::total       158941                       # Number of BTB updates (Count)
system.cpu.branchPred.btb.mispredict::NoBranch            0      0.00%      0.00% # Number of BTB mispredictions. No target found or target wrong. (Count)
system.cpu.branchPred.btb.mispredict::Return            0      0.00%      0.00% # Number of BTB mispredictions. No target found or target wrong. (Count)
system.cpu.branchPred.btb.mispredict::CallDirect          886      0.56%      0.56% # Number of BTB mispredictions. No target found or target wrong. (Count)
system.cpu.branchPred.btb.mispredict::CallIndirect            0      0.00%      0.56% # Number of BTB mispredictions. No target found or target wrong. (Count)
system.cpu.branchPred.btb.mispredict::DirectCond       157402     99.03%     99.59% # Number of BTB mispredictions. No target found or target wrong. (Count)
system.cpu.branchPred.btb.mispredict::DirectUncond          653      0.41%    100.00% # Number of BTB mispredictions. No target found or target wrong. (Count)
system.cpu.branchPred.btb.mispredict::IndirectCond            0      0.00%    100.00% # Number of BTB mispredictions. No target found or target wrong. (Count)
system.cpu.branchPred.btb.mispredict::IndirectUncond            0      0.00%    100.00% # Number of BTB mispredictions. No target found or target wrong. (Count)
system.cpu.branchPred.btb.mispredict::total       158941                       # Number of BTB mispredictions. No target found or target wrong. (Count)
system.cpu.branchPred.btb.power_state.pwrStateResidencyTicks::UNDEFINED 783681333677                       # Cumulative time (in ticks) in various power states (Tick)
system.cpu.branchPred.indirectBranchPred.lookups      4741237                       # Number of lookups (Count)
system.cpu.branchPred.indirectBranchPred.hits      4739091                       # Number of hits of a tag (Count)
system.cpu.branchPred.indirectBranchPred.misses         2146                       # Number of misses (Count)
system.cpu.branchPred.indirectBranchPred.targetRecords          525                       # Number of targets that where recorded/installed in the cache (Count)
system.cpu.branchPred.indirectBranchPred.indirectRecords      4741762                       # Number of indirect branches/calls recorded in the indirect hist (Count)
system.cpu.branchPred.indirectBranchPred.speculativeOverflows            0                       # Number of times more than the allowed capacity for speculative branches/calls where in flight and destroy the path history (Count)
system.cpu.branchPred.ras.pushes             14558333                       # Number of times a PC was pushed onto the RAS (Count)
system.cpu.branchPred.ras.pops               14558329                       # Number of times a PC was poped from the RAS (Count)
system.cpu.branchPred.ras.squashes             361981                       # Number of times the stack operation was squashed due to wrong speculation. (Count)
system.cpu.branchPred.ras.used               14196348                       # Number of times the RAS is the provider (Count)
system.cpu.branchPred.ras.correct            14196337                       # Number of times the RAS is the provider and the prediction is correct (Count)
system.cpu.branchPred.ras.incorrect                11                       # Number of times the RAS is the provider and the prediction is wrong (Count)
system.cpu.commit.commitSquashedInsts         1251368                       # The number of squashed insts skipped by commit (Count)
system.cpu.commit.commitNonSpecStalls             693                       # The number of times commit has been forced to stall to communicate backwards (Count)
system.cpu.commit.branchMispredicts            174530                       # The number of times a branch was mispredicted (Count)
system.cpu.commit.numCommittedDist::samples   2440378816                       # Number of insts commited each cycle (Count)
system.cpu.commit.numCommittedDist::mean     0.275463                       # Number of insts commited each cycle (Count)
system.cpu.commit.numCommittedDist::stdev     1.226462                       # Number of insts commited each cycle (Count)
system.cpu.commit.numCommittedDist::underflows            0      0.00%      0.00% # Number of insts commited each cycle (Count)
system.cpu.commit.numCommittedDist::0      2279359976     93.40%     93.40% # Number of insts commited each cycle (Count)
system.cpu.commit.numCommittedDist::1        28708826      1.18%     94.58% # Number of insts commited each cycle (Count)
system.cpu.commit.numCommittedDist::2        23531805      0.96%     95.54% # Number of insts commited each cycle (Count)
system.cpu.commit.numCommittedDist::3        28295435      1.16%     96.70% # Number of insts commited each cycle (Count)
system.cpu.commit.numCommittedDist::4        18870290      0.77%     97.48% # Number of insts commited each cycle (Count)
system.cpu.commit.numCommittedDist::5         9579981      0.39%     97.87% # Number of insts commited each cycle (Count)
system.cpu.commit.numCommittedDist::6        13997447      0.57%     98.44% # Number of insts commited each cycle (Count)
system.cpu.commit.numCommittedDist::7           70218      0.00%     98.44% # Number of insts commited each cycle (Count)
system.cpu.commit.numCommittedDist::8        37964838      1.56%    100.00% # Number of insts commited each cycle (Count)
system.cpu.commit.numCommittedDist::overflows            0      0.00%    100.00% # Number of insts commited each cycle (Count)
system.cpu.commit.numCommittedDist::min_value            0                       # Number of insts commited each cycle (Count)
system.cpu.commit.numCommittedDist::max_value            8                       # Number of insts commited each cycle (Count)
system.cpu.commit.numCommittedDist::total   2440378816                       # Number of insts commited each cycle (Count)
system.cpu.commit.amos                              0                       # Number of atomic instructions committed (Count)
system.cpu.commit.membars                         306                       # Number of memory barriers committed (Count)
system.cpu.commit.functionCalls              14196352                       # Number of function calls committed. (Count)
system.cpu.commit.committedInstType_0::No_OpClass         2665      0.00%      0.00% # Class of committed instruction (Count)
system.cpu.commit.committedInstType_0::IntAlu    510964853     76.01%     76.01% # Class of committed instruction (Count)
system.cpu.commit.committedInstType_0::IntMult         8642      0.00%     76.01% # Class of committed instruction (Count)
system.cpu.commit.committedInstType_0::IntDiv         3761      0.00%     76.01% # Class of committed instruction (Count)
system.cpu.commit.committedInstType_0::FloatAdd        41703      0.01%     76.02% # Class of committed instruction (Count)
system.cpu.commit.committedInstType_0::FloatCmp            0      0.00%     76.02% # Class of committed instruction (Count)
system.cpu.commit.committedInstType_0::FloatCvt          416      0.00%     76.02% # Class of committed instruction (Count)
system.cpu.commit.committedInstType_0::FloatMult            0      0.00%     76.02% # Class of committed instruction (Count)
system.cpu.commit.committedInstType_0::FloatMultAcc            0      0.00%     76.02% # Class of committed instruction (Count)
system.cpu.commit.committedInstType_0::FloatDiv            0      0.00%     76.02% # Class of committed instruction (Count)
system.cpu.commit.committedInstType_0::FloatMisc            0      0.00%     76.02% # Class of committed instruction (Count)
system.cpu.commit.committedInstType_0::FloatSqrt            0      0.00%     76.02% # Class of committed instruction (Count)
system.cpu.commit.committedInstType_0::SimdAdd           16      0.00%     76.02% # Class of committed instruction (Count)
system.cpu.commit.committedInstType_0::SimdAddAcc            0      0.00%     76.02% # Class of committed instruction (Count)
system.cpu.commit.committedInstType_0::SimdAlu        18078      0.00%     76.02% # Class of committed instruction (Count)
system.cpu.commit.committedInstType_0::SimdCmp            0      0.00%     76.02% # Class of committed instruction (Count)
system.cpu.commit.committedInstType_0::SimdCvt          500      0.00%     76.02% # Class of committed instruction (Count)
system.cpu.commit.committedInstType_0::SimdMisc        14058      0.00%     76.02% # Class of committed instruction (Count)
system.cpu.commit.committedInstType_0::SimdMult            0      0.00%     76.02% # Class of committed instruction (Count)
system.cpu.commit.committedInstType_0::SimdMultAcc            0      0.00%     76.02% # Class of committed instruction (Count)
system.cpu.commit.committedInstType_0::SimdMatMultAcc            0      0.00%     76.02% # Class of committed instruction (Count)
system.cpu.commit.committedInstType_0::SimdShift            0      0.00%     76.02% # Class of committed instruction (Count)
system.cpu.commit.committedInstType_0::SimdShiftAcc            0      0.00%     76.02% # Class of committed instruction (Count)
system.cpu.commit.committedInstType_0::SimdDiv            0      0.00%     76.02% # Class of committed instruction (Count)
system.cpu.commit.committedInstType_0::SimdSqrt            0      0.00%     76.02% # Class of committed instruction (Count)
system.cpu.commit.committedInstType_0::SimdFloatAdd         8448      0.00%     76.02% # Class of committed instruction (Count)
system.cpu.commit.committedInstType_0::SimdFloatAlu            0      0.00%     76.02% # Class of committed instruction (Count)
system.cpu.commit.committedInstType_0::SimdFloatCmp            0      0.00%     76.02% # Class of committed instruction (Count)
system.cpu.commit.committedInstType_0::SimdFloatCvt        18048      0.00%     76.03% # Class of committed instruction (Count)
system.cpu.commit.committedInstType_0::SimdFloatDiv         4224      0.00%     76.03% # Class of committed instruction (Count)
system.cpu.commit.committedInstType_0::SimdFloatMisc            0      0.00%     76.03% # Class of committed instruction (Count)
system.cpu.commit.committedInstType_0::SimdFloatMult         4608      0.00%     76.03% # Class of committed instruction (Count)
system.cpu.commit.committedInstType_0::SimdFloatMultAcc            0      0.00%     76.03% # Class of committed instruction (Count)
system.cpu.commit.committedInstType_0::SimdFloatMatMultAcc            0      0.00%     76.03% # Class of committed instruction (Count)
system.cpu.commit.committedInstType_0::SimdFloatSqrt            0      0.00%     76.03% # Class of committed instruction (Count)
system.cpu.commit.committedInstType_0::SimdReduceAdd            0      0.00%     76.03% # Class of committed instruction (Count)
system.cpu.commit.committedInstType_0::SimdReduceAlu            0      0.00%     76.03% # Class of committed instruction (Count)
system.cpu.commit.committedInstType_0::SimdReduceCmp            0      0.00%     76.03% # Class of committed instruction (Count)
system.cpu.commit.committedInstType_0::SimdFloatReduceAdd            0      0.00%     76.03% # Class of committed instruction (Count)
system.cpu.commit.committedInstType_0::SimdFloatReduceCmp            0      0.00%     76.03% # Class of committed instruction (Count)
system.cpu.commit.committedInstType_0::SimdAes            0      0.00%     76.03% # Class of committed instruction (Count)
system.cpu.commit.committedInstType_0::SimdAesMix            0      0.00%     76.03% # Class of committed instruction (Count)
system.cpu.commit.committedInstType_0::SimdSha1Hash            0      0.00%     76.03% # Class of committed instruction (Count)
system.cpu.commit.committedInstType_0::SimdSha1Hash2            0      0.00%     76.03% # Class of committed instruction (Count)
system.cpu.commit.committedInstType_0::SimdSha256Hash            0      0.00%     76.03% # Class of committed instruction (Count)
system.cpu.commit.committedInstType_0::SimdSha256Hash2            0      0.00%     76.03% # Class of committed instruction (Count)
system.cpu.commit.committedInstType_0::SimdShaSigma2            0      0.00%     76.03% # Class of committed instruction (Count)
system.cpu.commit.committedInstType_0::SimdShaSigma3            0      0.00%     76.03% # Class of committed instruction (Count)
system.cpu.commit.committedInstType_0::SimdPredAlu            0      0.00%     76.03% # Class of committed instruction (Count)
system.cpu.commit.committedInstType_0::Matrix            0      0.00%     76.03% # Class of committed instruction (Count)
system.cpu.commit.committedInstType_0::MatrixMov            0      0.00%     76.03% # Class of committed instruction (Count)
system.cpu.commit.committedInstType_0::MatrixOP            0      0.00%     76.03% # Class of committed instruction (Count)
system.cpu.commit.committedInstType_0::MemRead    104230256     15.51%     91.53% # Class of committed instruction (Count)
system.cpu.commit.committedInstType_0::MemWrite     56847047      8.46%     99.99% # Class of committed instruction (Count)
system.cpu.commit.committedInstType_0::FloatMemRead        47357      0.01%    100.00% # Class of committed instruction (Count)
system.cpu.commit.committedInstType_0::FloatMemWrite        20038      0.00%    100.00% # Class of committed instruction (Count)
system.cpu.commit.committedInstType_0::IprAccess            0      0.00%    100.00% # Class of committed instruction (Count)
system.cpu.commit.committedInstType_0::InstPrefetch            0      0.00%    100.00% # Class of committed instruction (Count)
system.cpu.commit.committedInstType_0::SimdUnitStrideLoad            0      0.00%    100.00% # Class of committed instruction (Count)
system.cpu.commit.committedInstType_0::SimdUnitStrideStore            0      0.00%    100.00% # Class of committed instruction (Count)
system.cpu.commit.committedInstType_0::SimdUnitStrideMaskLoad            0      0.00%    100.00% # Class of committed instruction (Count)
system.cpu.commit.committedInstType_0::SimdUnitStrideMaskStore            0      0.00%    100.00% # Class of committed instruction (Count)
system.cpu.commit.committedInstType_0::SimdStridedLoad            0      0.00%    100.00% # Class of committed instruction (Count)
system.cpu.commit.committedInstType_0::SimdStridedStore            0      0.00%    100.00% # Class of committed instruction (Count)
system.cpu.commit.committedInstType_0::SimdIndexedLoad            0      0.00%    100.00% # Class of committed instruction (Count)
system.cpu.commit.committedInstType_0::SimdIndexedStore            0      0.00%    100.00% # Class of committed instruction (Count)
system.cpu.commit.committedInstType_0::SimdWholeRegisterLoad            0      0.00%    100.00% # Class of committed instruction (Count)
system.cpu.commit.committedInstType_0::SimdWholeRegisterStore            0      0.00%    100.00% # Class of committed instruction (Count)
system.cpu.commit.committedInstType_0::SimdUnitStrideFaultOnlyFirstLoad            0      0.00%    100.00% # Class of committed instruction (Count)
system.cpu.commit.committedInstType_0::SimdUnitStrideSegmentedLoad            0      0.00%    100.00% # Class of committed instruction (Count)
system.cpu.commit.committedInstType_0::SimdUnitStrideSegmentedStore            0      0.00%    100.00% # Class of committed instruction (Count)
system.cpu.commit.committedInstType_0::SimdExt            0      0.00%    100.00% # Class of committed instruction (Count)
system.cpu.commit.committedInstType_0::SimdFloatExt            0      0.00%    100.00% # Class of committed instruction (Count)
system.cpu.commit.committedInstType_0::SimdConfig            0      0.00%    100.00% # Class of committed instruction (Count)
system.cpu.commit.committedInstType_0::total    672234718                       # Class of committed instruction (Count)
system.cpu.commit.commitEligibleSamples      37964838                       # number cycles where commit BW limit reached (Cycle)
system.cpu.commitStats0.numInsts            340981432                       # Number of instructions committed (thread level) (Count)
system.cpu.commitStats0.numOps              672234718                       # Number of ops (including micro ops) committed (thread level) (Count)
system.cpu.commitStats0.numInstsNotNOP      340981432                       # Number of instructions committed excluding NOPs or prefetches (Count)
system.cpu.commitStats0.numOpsNotNOP        672234718                       # Number of Ops (including micro ops) Simulated (Count)
system.cpu.commitStats0.cpi                  7.342846                       # CPI: cycles per instruction (thread level) ((Cycle/Count))
system.cpu.commitStats0.ipc                  0.136187                       # IPC: instructions per cycle (thread level) ((Count/Cycle))
system.cpu.commitStats0.numMemRefs          161144698                       # Number of memory references committed (Count)
system.cpu.commitStats0.numFpInsts             177603                       # Number of float instructions (Count)
system.cpu.commitStats0.numIntInsts         672126405                       # Number of integer instructions (Count)
system.cpu.commitStats0.numLoadInsts        104277613                       # Number of load instructions (Count)
system.cpu.commitStats0.numStoreInsts        56867085                       # Number of store instructions (Count)
system.cpu.commitStats0.numVecInsts                 0                       # Number of vector instructions (Count)
system.cpu.commitStats0.committedInstType::No_OpClass         2665      0.00%      0.00% # Class of committed instruction. (Count)
system.cpu.commitStats0.committedInstType::IntAlu    510964853     76.01%     76.01% # Class of committed instruction. (Count)
system.cpu.commitStats0.committedInstType::IntMult         8642      0.00%     76.01% # Class of committed instruction. (Count)
system.cpu.commitStats0.committedInstType::IntDiv         3761      0.00%     76.01% # Class of committed instruction. (Count)
system.cpu.commitStats0.committedInstType::FloatAdd        41703      0.01%     76.02% # Class of committed instruction. (Count)
system.cpu.commitStats0.committedInstType::FloatCmp            0      0.00%     76.02% # Class of committed instruction. (Count)
system.cpu.commitStats0.committedInstType::FloatCvt          416      0.00%     76.02% # Class of committed instruction. (Count)
system.cpu.commitStats0.committedInstType::FloatMult            0      0.00%     76.02% # Class of committed instruction. (Count)
system.cpu.commitStats0.committedInstType::FloatMultAcc            0      0.00%     76.02% # Class of committed instruction. (Count)
system.cpu.commitStats0.committedInstType::FloatDiv            0      0.00%     76.02% # Class of committed instruction. (Count)
system.cpu.commitStats0.committedInstType::FloatMisc            0      0.00%     76.02% # Class of committed instruction. (Count)
system.cpu.commitStats0.committedInstType::FloatSqrt            0      0.00%     76.02% # Class of committed instruction. (Count)
system.cpu.commitStats0.committedInstType::SimdAdd           16      0.00%     76.02% # Class of committed instruction. (Count)
system.cpu.commitStats0.committedInstType::SimdAddAcc            0      0.00%     76.02% # Class of committed instruction. (Count)
system.cpu.commitStats0.committedInstType::SimdAlu        18078      0.00%     76.02% # Class of committed instruction. (Count)
system.cpu.commitStats0.committedInstType::SimdCmp            0      0.00%     76.02% # Class of committed instruction. (Count)
system.cpu.commitStats0.committedInstType::SimdCvt          500      0.00%     76.02% # Class of committed instruction. (Count)
system.cpu.commitStats0.committedInstType::SimdMisc        14058      0.00%     76.02% # Class of committed instruction. (Count)
system.cpu.commitStats0.committedInstType::SimdMult            0      0.00%     76.02% # Class of committed instruction. (Count)
system.cpu.commitStats0.committedInstType::SimdMultAcc            0      0.00%     76.02% # Class of committed instruction. (Count)
system.cpu.commitStats0.committedInstType::SimdMatMultAcc            0      0.00%     76.02% # Class of committed instruction. (Count)
system.cpu.commitStats0.committedInstType::SimdShift            0      0.00%     76.02% # Class of committed instruction. (Count)
system.cpu.commitStats0.committedInstType::SimdShiftAcc            0      0.00%     76.02% # Class of committed instruction. (Count)
system.cpu.commitStats0.committedInstType::SimdDiv            0      0.00%     76.02% # Class of committed instruction. (Count)
system.cpu.commitStats0.committedInstType::SimdSqrt            0      0.00%     76.02% # Class of committed instruction. (Count)
system.cpu.commitStats0.committedInstType::SimdFloatAdd         8448      0.00%     76.02% # Class of committed instruction. (Count)
system.cpu.commitStats0.committedInstType::SimdFloatAlu            0      0.00%     76.02% # Class of committed instruction. (Count)
system.cpu.commitStats0.committedInstType::SimdFloatCmp            0      0.00%     76.02% # Class of committed instruction. (Count)
system.cpu.commitStats0.committedInstType::SimdFloatCvt        18048      0.00%     76.03% # Class of committed instruction. (Count)
system.cpu.commitStats0.committedInstType::SimdFloatDiv         4224      0.00%     76.03% # Class of committed instruction. (Count)
system.cpu.commitStats0.committedInstType::SimdFloatMisc            0      0.00%     76.03% # Class of committed instruction. (Count)
system.cpu.commitStats0.committedInstType::SimdFloatMult         4608      0.00%     76.03% # Class of committed instruction. (Count)
system.cpu.commitStats0.committedInstType::SimdFloatMultAcc            0      0.00%     76.03% # Class of committed instruction. (Count)
system.cpu.commitStats0.committedInstType::SimdFloatMatMultAcc            0      0.00%     76.03% # Class of committed instruction. (Count)
system.cpu.commitStats0.committedInstType::SimdFloatSqrt            0      0.00%     76.03% # Class of committed instruction. (Count)
system.cpu.commitStats0.committedInstType::SimdReduceAdd            0      0.00%     76.03% # Class of committed instruction. (Count)
system.cpu.commitStats0.committedInstType::SimdReduceAlu            0      0.00%     76.03% # Class of committed instruction. (Count)
system.cpu.commitStats0.committedInstType::SimdReduceCmp            0      0.00%     76.03% # Class of committed instruction. (Count)
system.cpu.commitStats0.committedInstType::SimdFloatReduceAdd            0      0.00%     76.03% # Class of committed instruction. (Count)
system.cpu.commitStats0.committedInstType::SimdFloatReduceCmp            0      0.00%     76.03% # Class of committed instruction. (Count)
system.cpu.commitStats0.committedInstType::SimdAes            0      0.00%     76.03% # Class of committed instruction. (Count)
system.cpu.commitStats0.committedInstType::SimdAesMix            0      0.00%     76.03% # Class of committed instruction. (Count)
system.cpu.commitStats0.committedInstType::SimdSha1Hash            0      0.00%     76.03% # Class of committed instruction. (Count)
system.cpu.commitStats0.committedInstType::SimdSha1Hash2            0      0.00%     76.03% # Class of committed instruction. (Count)
system.cpu.commitStats0.committedInstType::SimdSha256Hash            0      0.00%     76.03% # Class of committed instruction. (Count)
system.cpu.commitStats0.committedInstType::SimdSha256Hash2            0      0.00%     76.03% # Class of committed instruction. (Count)
system.cpu.commitStats0.committedInstType::SimdShaSigma2            0      0.00%     76.03% # Class of committed instruction. (Count)
system.cpu.commitStats0.committedInstType::SimdShaSigma3            0      0.00%     76.03% # Class of committed instruction. (Count)
system.cpu.commitStats0.committedInstType::SimdPredAlu            0      0.00%     76.03% # Class of committed instruction. (Count)
system.cpu.commitStats0.committedInstType::Matrix            0      0.00%     76.03% # Class of committed instruction. (Count)
system.cpu.commitStats0.committedInstType::MatrixMov            0      0.00%     76.03% # Class of committed instruction. (Count)
system.cpu.commitStats0.committedInstType::MatrixOP            0      0.00%     76.03% # Class of committed instruction. (Count)
system.cpu.commitStats0.committedInstType::MemRead    104230256     15.51%     91.53% # Class of committed instruction. (Count)
system.cpu.commitStats0.committedInstType::MemWrite     56847047      8.46%     99.99% # Class of committed instruction. (Count)
system.cpu.commitStats0.committedInstType::FloatMemRead        47357      0.01%    100.00% # Class of committed instruction. (Count)
system.cpu.commitStats0.committedInstType::FloatMemWrite        20038      0.00%    100.00% # Class of committed instruction. (Count)
system.cpu.commitStats0.committedInstType::IprAccess            0      0.00%    100.00% # Class of committed instruction. (Count)
system.cpu.commitStats0.committedInstType::InstPrefetch            0      0.00%    100.00% # Class of committed instruction. (Count)
system.cpu.commitStats0.committedInstType::SimdUnitStrideLoad            0      0.00%    100.00% # Class of committed instruction. (Count)
system.cpu.commitStats0.committedInstType::SimdUnitStrideStore            0      0.00%    100.00% # Class of committed instruction. (Count)
system.cpu.commitStats0.committedInstType::SimdUnitStrideMaskLoad            0      0.00%    100.00% # Class of committed instruction. (Count)
system.cpu.commitStats0.committedInstType::SimdUnitStrideMaskStore            0      0.00%    100.00% # Class of committed instruction. (Count)
system.cpu.commitStats0.committedInstType::SimdStridedLoad            0      0.00%    100.00% # Class of committed instruction. (Count)
system.cpu.commitStats0.committedInstType::SimdStridedStore            0      0.00%    100.00% # Class of committed instruction. (Count)
system.cpu.commitStats0.committedInstType::SimdIndexedLoad            0      0.00%    100.00% # Class of committed instruction. (Count)
system.cpu.commitStats0.committedInstType::SimdIndexedStore            0      0.00%    100.00% # Class of committed instruction. (Count)
system.cpu.commitStats0.committedInstType::SimdWholeRegisterLoad            0      0.00%    100.00% # Class of committed instruction. (Count)
system.cpu.commitStats0.committedInstType::SimdWholeRegisterStore            0      0.00%    100.00% # Class of committed instruction. (Count)
system.cpu.commitStats0.committedInstType::SimdUnitStrideFaultOnlyFirstLoad            0      0.00%    100.00% # Class of committed instruction. (Count)
system.cpu.commitStats0.committedInstType::SimdUnitStrideSegmentedLoad            0      0.00%    100.00% # Class of committed instruction. (Count)
system.cpu.commitStats0.committedInstType::SimdUnitStrideSegmentedStore            0      0.00%    100.00% # Class of committed instruction. (Count)
system.cpu.commitStats0.committedInstType::SimdExt            0      0.00%    100.00% # Class of committed instruction. (Count)
system.cpu.commitStats0.committedInstType::SimdFloatExt            0      0.00%    100.00% # Class of committed instruction. (Count)
system.cpu.commitStats0.committedInstType::SimdConfig            0      0.00%    100.00% # Class of committed instruction. (Count)
system.cpu.commitStats0.committedInstType::total    672234718                       # Class of committed instruction. (Count)
system.cpu.commitStats0.committedControl::IsControl     75768443                       # Class of control type instructions committed (Count)
system.cpu.commitStats0.committedControl::IsDirectControl     56847754                       # Class of control type instructions committed (Count)
system.cpu.commitStats0.committedControl::IsIndirectControl     18920689                       # Class of control type instructions committed (Count)
system.cpu.commitStats0.committedControl::IsCondControl     42634497                       # Class of control type instructions committed (Count)
system.cpu.commitStats0.committedControl::IsUncondControl     33133946                       # Class of control type instructions committed (Count)
system.cpu.commitStats0.committedControl::IsCall     14196352                       # Class of control type instructions committed (Count)
system.cpu.commitStats0.committedControl::IsReturn     14196348                       # Class of control type instructions committed (Count)
system.cpu.dcache.demandHits::cpu.data       99612472                       # number of demand (read+write) hits (Count)
system.cpu.dcache.demandHits::total          99612472                       # number of demand (read+write) hits (Count)
system.cpu.dcache.overallHits::cpu.data      99612472                       # number of overall hits (Count)
system.cpu.dcache.overallHits::total         99612472                       # number of overall hits (Count)
system.cpu.dcache.demandMisses::cpu.data        27601                       # number of demand (read+write) misses (Count)
system.cpu.dcache.demandMisses::total           27601                       # number of demand (read+write) misses (Count)
system.cpu.dcache.overallMisses::cpu.data        27601                       # number of overall misses (Count)
system.cpu.dcache.overallMisses::total          27601                       # number of overall misses (Count)
system.cpu.dcache.demandMissLatency::cpu.data  11393813458                       # number of demand (read+write) miss ticks (Tick)
system.cpu.dcache.demandMissLatency::total  11393813458                       # number of demand (read+write) miss ticks (Tick)
system.cpu.dcache.overallMissLatency::cpu.data  11393813458                       # number of overall miss ticks (Tick)
system.cpu.dcache.overallMissLatency::total  11393813458                       # number of overall miss ticks (Tick)
system.cpu.dcache.demandAccesses::cpu.data     99640073                       # number of demand (read+write) accesses (Count)
system.cpu.dcache.demandAccesses::total      99640073                       # number of demand (read+write) accesses (Count)
system.cpu.dcache.overallAccesses::cpu.data     99640073                       # number of overall (read+write) accesses (Count)
system.cpu.dcache.overallAccesses::total     99640073                       # number of overall (read+write) accesses (Count)
system.cpu.dcache.demandMissRate::cpu.data     0.000277                       # miss rate for demand accesses (Ratio)
system.cpu.dcache.demandMissRate::total      0.000277                       # miss rate for demand accesses (Ratio)
system.cpu.dcache.overallMissRate::cpu.data     0.000277                       # miss rate for overall accesses (Ratio)
system.cpu.dcache.overallMissRate::total     0.000277                       # miss rate for overall accesses (Ratio)
system.cpu.dcache.demandAvgMissLatency::cpu.data 412804.371508                       # average overall miss latency in ticks ((Tick/Count))
system.cpu.dcache.demandAvgMissLatency::total 412804.371508                       # average overall miss latency in ticks ((Tick/Count))
system.cpu.dcache.overallAvgMissLatency::cpu.data 412804.371508                       # average overall miss latency ((Tick/Count))
system.cpu.dcache.overallAvgMissLatency::total 412804.371508                       # average overall miss latency ((Tick/Count))
system.cpu.dcache.blockedCycles::no_mshrs       741810                       # number of cycles access was blocked (Cycle)
system.cpu.dcache.blockedCycles::no_targets        19299                       # number of cycles access was blocked (Cycle)
system.cpu.dcache.blockedCauses::no_mshrs          761                       # number of times access was blocked (Count)
system.cpu.dcache.blockedCauses::no_targets           38                       # number of times access was blocked (Count)
system.cpu.dcache.avgBlocked::no_mshrs     974.783180                       # average number of cycles each access was blocked ((Cycle/Count))
system.cpu.dcache.avgBlocked::no_targets   507.868421                       # average number of cycles each access was blocked ((Cycle/Count))
system.cpu.dcache.writebacks::writebacks         3550                       # number of writebacks (Count)
system.cpu.dcache.writebacks::total              3550                       # number of writebacks (Count)
system.cpu.dcache.demandMshrHits::cpu.data        18849                       # number of demand (read+write) MSHR hits (Count)
system.cpu.dcache.demandMshrHits::total         18849                       # number of demand (read+write) MSHR hits (Count)
system.cpu.dcache.overallMshrHits::cpu.data        18849                       # number of overall MSHR hits (Count)
[...]
system.l2.ReadSharedReq.missRate::total      0.604265                       # miss rate for ReadSharedReq accesses (Ratio)
system.l2.ReadSharedReq.avgMissLatency::cpu.data 659695.225754                       # average ReadSharedReq miss latency ((Tick/Count))
system.l2.ReadSharedReq.avgMissLatency::total 659695.225754                       # average ReadSharedReq miss latency ((Tick/Count))
system.l2.ReadSharedReq.mshrMisses::cpu.data         3712                       # number of ReadSharedReq MSHR misses (Count)
system.l2.ReadSharedReq.mshrMisses::total         3712                       # number of ReadSharedReq MSHR misses (Count)
system.l2.ReadSharedReq.mshrMissLatency::cpu.data   2424968187                       # number of ReadSharedReq MSHR miss ticks (Tick)
system.l2.ReadSharedReq.mshrMissLatency::total   2424968187                       # number of ReadSharedReq MSHR miss ticks (Tick)
system.l2.ReadSharedReq.mshrMissRate::cpu.data     0.604265                       # mshr miss rate for ReadSharedReq accesses (Ratio)
system.l2.ReadSharedReq.mshrMissRate::total     0.604265                       # mshr miss rate for ReadSharedReq accesses (Ratio)
system.l2.ReadSharedReq.avgMshrMissLatency::cpu.data 653278.067619                       # average ReadSharedReq mshr miss latency ((Tick/Count))
system.l2.ReadSharedReq.avgMshrMissLatency::total 653278.067619                       # average ReadSharedReq mshr miss latency ((Tick/Count))
system.l2.UpgradeReq.hits::cpu.data                 3                       # number of UpgradeReq hits (Count)
system.l2.UpgradeReq.hits::total                    3                       # number of UpgradeReq hits (Count)
system.l2.UpgradeReq.accesses::cpu.data             3                       # number of UpgradeReq accesses(hits+misses) (Count)
system.l2.UpgradeReq.accesses::total                3                       # number of UpgradeReq accesses(hits+misses) (Count)
system.l2.WriteReq.mshrUncacheable::cpu.data      4723210                       # number of WriteReq MSHR uncacheable (Count)
system.l2.WriteReq.mshrUncacheable::total      4723210                       # number of WriteReq MSHR uncacheable (Count)
system.l2.WritebackClean.hits::writebacks         2494                       # number of WritebackClean hits (Count)
system.l2.WritebackClean.hits::total             2494                       # number of WritebackClean hits (Count)
system.l2.WritebackClean.accesses::writebacks         2494                       # number of WritebackClean accesses(hits+misses) (Count)
system.l2.WritebackClean.accesses::total         2494                       # number of WritebackClean accesses(hits+misses) (Count)
system.l2.WritebackDirty.hits::writebacks         3550                       # number of WritebackDirty hits (Count)
system.l2.WritebackDirty.hits::total             3550                       # number of WritebackDirty hits (Count)
system.l2.WritebackDirty.accesses::writebacks         3550                       # number of WritebackDirty accesses(hits+misses) (Count)
system.l2.WritebackDirty.accesses::total         3550                       # number of WritebackDirty accesses(hits+misses) (Count)
system.l2.power_state.pwrStateResidencyTicks::UNDEFINED 783681333677                       # Cumulative time (in ticks) in various power states (Tick)
system.l2.tags.tagsInUse                  6993.731915                       # Average ticks per tags in use ((Tick/Count))
system.l2.tags.totalRefs                        22489                       # Total number of references to valid blocks. (Count)
system.l2.tags.sampledRefs                       7844                       # Sample count of references to valid blocks. (Count)
system.l2.tags.avgRefs                       2.867032                       # Average number of references to valid blocks. ((Count/Count))
system.l2.tags.warmupTick                      430000                       # The tick when the warmup percentage was hit. (Tick)
system.l2.tags.occupancies::cpu.inst      1809.020487                       # Average occupied blocks per tick, per requestor ((Count/Tick))
system.l2.tags.occupancies::cpu.data      5184.711428                       # Average occupied blocks per tick, per requestor ((Count/Tick))
system.l2.tags.avgOccs::cpu.inst             0.055207                       # Average percentage of cache occupancy ((Ratio/Tick))
system.l2.tags.avgOccs::cpu.data             0.158225                       # Average percentage of cache occupancy ((Ratio/Tick))
system.l2.tags.avgOccs::total                0.213432                       # Average percentage of cache occupancy ((Ratio/Tick))
system.l2.tags.occupanciesTaskId::1024           7843                       # Occupied blocks per task id (Count)
system.l2.tags.ageTaskId_1024::0                   32                       # Occupied blocks per task id, per block age (Count)
system.l2.tags.ageTaskId_1024::1                  113                       # Occupied blocks per task id, per block age (Count)
system.l2.tags.ageTaskId_1024::3                    2                       # Occupied blocks per task id, per block age (Count)
system.l2.tags.ageTaskId_1024::4                 7696                       # Occupied blocks per task id, per block age (Count)
system.l2.tags.ratioOccsTaskId::1024         0.239349                       # Ratio of occupied blocks and all blocks, per task id (Ratio)
system.l2.tags.tagAccesses                     187772                       # Number of tag accesses (Count)
system.l2.tags.dataAccesses                    187772                       # Number of data accesses (Count)
system.l2.tags.power_state.pwrStateResidencyTicks::UNDEFINED 783681333677                       # Cumulative time (in ticks) in various power states (Tick)
system.mem_ctrls.bytesRead::cpu.inst           131968                       # Number of bytes read from this memory (Byte)
system.mem_ctrls.bytesRead::cpu.data           373888                       # Number of bytes read from this memory (Byte)
system.mem_ctrls.bytesRead::total              505856                       # Number of bytes read from this memory (Byte)
system.mem_ctrls.bytesInstRead::cpu.inst       131968                       # Number of instructions bytes read from this memory (Byte)
system.mem_ctrls.bytesInstRead::total          131968                       # Number of instructions bytes read from this memory (Byte)
system.mem_ctrls.bytesWritten::cpu.data       4723210                       # Number of bytes written to this memory (Byte)
system.mem_ctrls.bytesWritten::total          4723210                       # Number of bytes written to this memory (Byte)
system.mem_ctrls.numReads::cpu.inst              2062                       # Number of read requests responded to by this memory (Count)
system.mem_ctrls.numReads::cpu.data              9622                       # Number of read requests responded to by this memory (Count)
system.mem_ctrls.numReads::total                11684                       # Number of read requests responded to by this memory (Count)
system.mem_ctrls.numWrites::cpu.data          4723210                       # Number of write requests responded to by this memory (Count)
system.mem_ctrls.numWrites::total             4723210                       # Number of write requests responded to by this memory (Count)
system.mem_ctrls.bwRead::cpu.inst              168395                       # Total read bandwidth from this memory ((Byte/Second))
system.mem_ctrls.bwRead::cpu.data              477092                       # Total read bandwidth from this memory ((Byte/Second))
system.mem_ctrls.bwRead::total                 645487                       # Total read bandwidth from this memory ((Byte/Second))
system.mem_ctrls.bwInstRead::cpu.inst          168395                       # Instruction read bandwidth from this memory ((Byte/Second))
system.mem_ctrls.bwInstRead::total             168395                       # Instruction read bandwidth from this memory ((Byte/Second))
system.mem_ctrls.bwWrite::cpu.data            6026952                       # Write bandwidth from this memory ((Byte/Second))
system.mem_ctrls.bwWrite::total               6026952                       # Write bandwidth from this memory ((Byte/Second))
system.mem_ctrls.bwTotal::cpu.inst             168395                       # Total bandwidth to/from this memory ((Byte/Second))
system.mem_ctrls.bwTotal::cpu.data            6504044                       # Total bandwidth to/from this memory ((Byte/Second))
system.mem_ctrls.bwTotal::total               6672439                       # Total bandwidth to/from this memory ((Byte/Second))
system.mem_ctrls.power_state.pwrStateResidencyTicks::UNDEFINED 783681333677                       # Cumulative time (in ticks) in various power states (Tick)
system.membus.transDist::ReadReq                 3840                       # Transaction distribution (Count)
system.membus.transDist::ReadResp                9614                       # Transaction distribution (Count)
system.membus.transDist::WriteReq             4723210                       # Transaction distribution (Count)
system.membus.transDist::WriteResp            4723210                       # Transaction distribution (Count)
system.membus.transDist::CleanEvict                 1                       # Transaction distribution (Count)
system.membus.transDist::ReadExReq               2070                       # Transaction distribution (Count)
system.membus.transDist::ReadExResp              2070                       # Transaction distribution (Count)
system.membus.transDist::ReadSharedReq           5774                       # Transaction distribution (Count)
system.membus.pktCount_system.l2.mem_side_port::system.mem_ctrls.port      9469789                       # Packet count per connected requestor and responder (Count)
system.membus.pktCount_system.l2.mem_side_port::total      9469789                       # Packet count per connected requestor and responder (Count)
system.membus.pktCount::total                 9469789                       # Packet count per connected requestor and responder (Count)
system.membus.pktSize_system.l2.mem_side_port::system.mem_ctrls.port      5229066                       # Cumulative packet size per connected requestor and responder (Byte)
system.membus.pktSize_system.l2.mem_side_port::total      5229066                       # Cumulative packet size per connected requestor and responder (Byte)
system.membus.pktSize::total                  5229066                       # Cumulative packet size per connected requestor and responder (Byte)
system.membus.snoops                                0                       # Total snoops (Count)
system.membus.snoopTraffic                          0                       # Total snoop traffic (Byte)
system.membus.snoopFanout::samples            9457946                       # Request fanout histogram (Count)
system.membus.snoopFanout::mean                     0                       # Request fanout histogram (Count)
system.membus.snoopFanout::stdev                    0                       # Request fanout histogram (Count)
system.membus.snoopFanout::underflows               0      0.00%      0.00% # Request fanout histogram (Count)
system.membus.snoopFanout::0                  9457946    100.00%    100.00% # Request fanout histogram (Count)
system.membus.snoopFanout::1                        0      0.00%    100.00% # Request fanout histogram (Count)
system.membus.snoopFanout::overflows                0      0.00%    100.00% # Request fanout histogram (Count)
system.membus.snoopFanout::min_value                0                       # Request fanout histogram (Count)
system.membus.snoopFanout::max_value                0                       # Request fanout histogram (Count)
system.membus.snoopFanout::total              9457946                       # Request fanout histogram (Count)
system.membus.power_state.pwrStateResidencyTicks::UNDEFINED 783681333677                       # Cumulative time (in ticks) in various power states (Tick)
system.membus.reqLayer2.occupancy         40078530405                       # Layer occupancy (ticks) (Tick)
system.membus.reqLayer2.utilization               0.1                       # Layer utilization (Ratio)
system.membus.respLayer1.occupancy        14484930261                       # Layer occupancy (ticks) (Tick)
system.membus.respLayer1.utilization              0.0                       # Layer utilization (Ratio)
system.membus.snoop_filter.totRequests           7847                       # Total number of requests made to the snoop filter. (Count)
system.membus.snoop_filter.hitSingleRequests            2                       # Number of requests hitting in the snoop filter with a single holder of the requested data. (Count)
system.membus.snoop_filter.hitMultiRequests            0                       # Number of requests hitting in the snoop filter with multiple (>1) holders of the requested data. (Count)
system.membus.snoop_filter.totSnoops                0                       # Total number of snoops made to the snoop filter. (Count)
system.membus.snoop_filter.hitSingleSnoops            0                       # Number of snoops hitting in the snoop filter with a single holder of the requested data. (Count)
system.membus.snoop_filter.hitMultiSnoops            0                       # Number of snoops hitting in the snoop filter with multiple (>1) holders of the requested data. (Count)
system.tol2bus.transDist::ReadReq                3840                       # Transaction distribution (Count)
system.tol2bus.transDist::ReadResp              12997                       # Transaction distribution (Count)
system.tol2bus.transDist::WriteReq            4723210                       # Transaction distribution (Count)
system.tol2bus.transDist::WriteResp           4723210                       # Transaction distribution (Count)
system.tol2bus.transDist::WritebackDirty         3550                       # Transaction distribution (Count)
system.tol2bus.transDist::WritebackClean         2500                       # Transaction distribution (Count)
system.tol2bus.transDist::CleanEvict             4688                       # Transaction distribution (Count)
system.tol2bus.transDist::UpgradeReq                3                       # Transaction distribution (Count)
system.tol2bus.transDist::UpgradeResp               3                       # Transaction distribution (Count)
system.tol2bus.transDist::ReadExReq              2606                       # Transaction distribution (Count)
system.tol2bus.transDist::ReadExResp             2606                       # Transaction distribution (Count)
system.tol2bus.transDist::ReadCleanReq           3015                       # Transaction distribution (Count)
system.tol2bus.transDist::ReadSharedReq          6143                       # Transaction distribution (Count)
system.tol2bus.pktCount_system.cpu.icache.mem_side_port::system.l2.cpu_side_port         8524                       # Packet count per connected requestor and responder (Count)
system.tol2bus.pktCount_system.cpu.dcache.mem_side_port::system.l2.cpu_side_port      9479841                       # Packet count per connected requestor and responder (Count)
system.tol2bus.pktCount::total                9488365                       # Packet count per connected requestor and responder (Count)
system.tol2bus.pktSize_system.cpu.icache.mem_side_port::system.l2.cpu_side_port       352576                       # Cumulative packet size per connected requestor and responder (Byte)
system.tol2bus.pktSize_system.cpu.dcache.mem_side_port::system.l2.cpu_side_port      5514186                       # Cumulative packet size per connected requestor and responder (Byte)
system.tol2bus.pktSize::total                 5866762                       # Cumulative packet size per connected requestor and responder (Byte)
system.tol2bus.snoops                               6                       # Total snoops (Count)
system.tol2bus.snoopTraffic                       320                       # Total snoop traffic (Byte)
system.tol2bus.snoopFanout::samples           4738818                       # Request fanout histogram (Count)
system.tol2bus.snoopFanout::mean             0.000003                       # Request fanout histogram (Count)
system.tol2bus.snoopFanout::stdev            0.001719                       # Request fanout histogram (Count)
system.tol2bus.snoopFanout::underflows              0      0.00%      0.00% # Request fanout histogram (Count)
system.tol2bus.snoopFanout::0                 4738804    100.00%    100.00% # Request fanout histogram (Count)
system.tol2bus.snoopFanout::1                      14      0.00%    100.00% # Request fanout histogram (Count)
system.tol2bus.snoopFanout::2                       0      0.00%    100.00% # Request fanout histogram (Count)
system.tol2bus.snoopFanout::3                       0      0.00%    100.00% # Request fanout histogram (Count)
system.tol2bus.snoopFanout::4                       0      0.00%    100.00% # Request fanout histogram (Count)
system.tol2bus.snoopFanout::overflows               0      0.00%    100.00% # Request fanout histogram (Count)
system.tol2bus.snoopFanout::min_value               0                       # Request fanout histogram (Count)
system.tol2bus.snoopFanout::max_value               1                       # Request fanout histogram (Count)
system.tol2bus.snoopFanout::total             4738818                       # Request fanout histogram (Count)
system.tol2bus.power_state.pwrStateResidencyTicks::UNDEFINED 783681333677                       # Cumulative time (in ticks) in various power states (Tick)
system.tol2bus.reqLayer0.occupancy         2968762432                       # Layer occupancy (ticks) (Tick)
system.tol2bus.reqLayer0.utilization              0.0                       # Layer utilization (Ratio)
system.tol2bus.respLayer0.occupancy           2832330                       # Layer occupancy (ticks) (Tick)
system.tol2bus.respLayer0.utilization             0.0                       # Layer utilization (Ratio)
system.tol2bus.respLayer1.occupancy        1489000180                       # Layer occupancy (ticks) (Tick)
system.tol2bus.respLayer1.utilization             0.0                       # Layer utilization (Ratio)
system.tol2bus.snoop_filter.totRequests         22504                       # Total number of requests made to the snoop filter. (Count)
system.tol2bus.snoop_filter.hitSingleRequests        10739                       # Number of requests hitting in the snoop filter with a single holder of the requested data. (Count)
system.tol2bus.snoop_filter.hitMultiRequests           13                       # Number of requests hitting in the snoop filter with multiple (>1) holders of the requested data. (Count)
system.tol2bus.snoop_filter.totSnoops               0                       # Total number of snoops made to the snoop filter. (Count)
system.tol2bus.snoop_filter.hitSingleSnoops            0                       # Number of snoops hitting in the snoop filter with a single holder of the requested data. (Count)
system.tol2bus.snoop_filter.hitMultiSnoops            0                       # Number of snoops hitting in the snoop filter with multiple (>1) holders of the requested data. (Count)
system.voltage_domain.voltage                       1                       # Voltage in Volts (Volt)
system.workload.inst.arm                            0                       # number of arm instructions executed (Count)
system.workload.inst.quiesce                        0                       # number of quiesce instructions executed (Count)

---------- End Simulation Statistics   ----------
