
---------- Begin Simulation Statistics ----------
simSeconds                                   0.015658                       # Number of seconds simulated (Second)
simTicks                                  15658216250                       # Number of ticks simulated (Tick)
finalTick                                 15658216250                       # Number of ticks from beginning of simulation (restored from checkpoints and never reset) (Tick)
simFreq                                  1000000000000                       # The number of ticks per simulated second ((Tick/Second))
hostSeconds                                     17.95                       # Real time elapsed on the host (Second)
hostTickRate                                872203666                       # The number of ticks simulated per host second (ticks/s) ((Tick/Second))
hostMemory                                     855692                       # Number of bytes of host memory used (Byte)
simInsts                                     22133004                       # Number of instructions simulated (Count)
simOps                                       43549248                       # Number of ops (including micro ops) simulated (Count)
hostInstRate                                  1232857                       # Simulator instruction rate (inst/s) ((Count/Second))
hostOpRate                                    2425788                       # Simulator op (including micro ops) rate (op/s) ((Count/Second))
system.clk_domain.clock                          2500                       # Clock period in ticks (Tick)
system.cpu.numCycles                         50026609                       # Number of cpu cycles simulated (Cycle)
system.cpu.cpi                               2.260249                       # CPI: cycles per instruction (core level) ((Cycle/Count))
system.cpu.ipc                               0.442429                       # IPC: instructions per cycle (core level) ((Count/Cycle))
system.cpu.numWorkItemsStarted                      0                       # Number of work items this cpu started (Count)
system.cpu.numWorkItemsCompleted                    0                       # Number of work items this cpu completed (Count)
system.cpu.commitStats0.numInsts             22133232                       # Number of instructions committed (thread level) (Count)
system.cpu.commitStats0.numOps               43549533                       # Number of ops (including micro ops) committed (thread level) (Count)
system.cpu.commitStats0.numInstsNotNOP              0                       # Number of instructions committed excluding NOPs or prefetches (Count)
system.cpu.commitStats0.numOpsNotNOP                0                       # Number of Ops (including micro ops) Simulated (Count)
system.cpu.commitStats0.cpi                  2.260249                       # CPI: cycles per instruction (thread level) ((Cycle/Count))
system.cpu.commitStats0.ipc                  0.442429                       # IPC: instructions per cycle (thread level) ((Count/Cycle))
system.cpu.commitStats0.numMemRefs                  0                       # Number of memory references committed (Count)
system.cpu.commitStats0.numFpInsts             104615                       # Number of float instructions (Count)
system.cpu.commitStats0.numIntInsts          43481582                       # Number of integer instructions (Count)
system.cpu.commitStats0.numLoadInsts          6778019                       # Number of load instructions (Count)
system.cpu.commitStats0.numStoreInsts         3687233                       # Number of store instructions (Count)
system.cpu.commitStats0.numVecInsts                 0                       # Number of vector instructions (Count)
system.cpu.commitStats0.committedInstType::No_OpClass         2650      0.01%      0.01% # Class of committed instruction. (Count)
system.cpu.commitStats0.committedInstType::IntAlu     33009108     75.80%     75.80% # Class of committed instruction. (Count)
system.cpu.commitStats0.committedInstType::IntMult         4802      0.01%     75.81% # Class of committed instruction. (Count)
system.cpu.commitStats0.committedInstType::IntDiv         3722      0.01%     75.82% # Class of committed instruction. (Count)
system.cpu.commitStats0.committedInstType::FloatAdd        24423      0.06%     75.88% # Class of committed instruction. (Count)
system.cpu.commitStats0.committedInstType::FloatCmp            0      0.00%     75.88% # Class of committed instruction. (Count)
system.cpu.commitStats0.committedInstType::FloatCvt          416      0.00%     75.88% # Class of committed instruction. (Count)
system.cpu.commitStats0.committedInstType::FloatMult            0      0.00%     75.88% # Class of committed instruction. (Count)
system.cpu.commitStats0.committedInstType::FloatMultAcc            0      0.00%     75.88% # Class of committed instruction. (Count)
system.cpu.commitStats0.committedInstType::FloatDiv            0      0.00%     75.88% # Class of committed instruction. (Count)
system.cpu.commitStats0.committedInstType::FloatMisc            0      0.00%     75.88% # Class of committed instruction. (Count)
system.cpu.commitStats0.committedInstType::FloatSqrt            0      0.00%     75.88% # Class of committed instruction. (Count)
system.cpu.commitStats0.committedInstType::SimdAdd           16      0.00%     75.88% # Class of committed instruction. (Count)
system.cpu.commitStats0.committedInstType::SimdAddAcc            0      0.00%     75.88% # Class of committed instruction. (Count)
system.cpu.commitStats0.committedInstType::SimdAlu        10398      0.02%     75.90% # Class of committed instruction. (Count)
system.cpu.commitStats0.committedInstType::SimdCmp            0      0.00%     75.90% # Class of committed instruction. (Count)
system.cpu.commitStats0.committedInstType::SimdCvt          490      0.00%     75.90% # Class of committed instruction. (Count)
system.cpu.commitStats0.committedInstType::SimdMisc         8288      0.02%     75.92% # Class of committed instruction. (Count)
system.cpu.commitStats0.committedInstType::SimdMult            0      0.00%     75.92% # Class of committed instruction. (Count)
system.cpu.commitStats0.committedInstType::SimdMultAcc            0      0.00%     75.92% # Class of committed instruction. (Count)
system.cpu.commitStats0.committedInstType::SimdMatMultAcc            0      0.00%     75.92% # Class of committed instruction. (Count)
system.cpu.commitStats0.committedInstType::SimdShift            0      0.00%     75.92% # Class of committed instruction. (Count)
system.cpu.commitStats0.committedInstType::SimdShiftAcc            0      0.00%     75.92% # Class of committed instruction. (Count)
system.cpu.commitStats0.committedInstType::SimdDiv            0      0.00%     75.92% # Class of committed instruction. (Count)
system.cpu.commitStats0.committedInstType::SimdSqrt            0      0.00%     75.92% # Class of committed instruction. (Count)
system.cpu.commitStats0.committedInstType::SimdFloatAdd         4608      0.01%     75.93% # Class of committed instruction. (Count)
system.cpu.commitStats0.committedInstType::SimdFloatAlu            0      0.00%     75.93% # Class of committed instruction. (Count)
system.cpu.commitStats0.committedInstType::SimdFloatCmp            0      0.00%     75.93% # Class of committed instruction. (Count)
system.cpu.commitStats0.committedInstType::SimdFloatCvt        10368      0.02%     75.96% # Class of committed instruction. (Count)
system.cpu.commitStats0.committedInstType::SimdFloatDiv         2304      0.01%     75.96% # Class of committed instruction. (Count)
system.cpu.commitStats0.committedInstType::SimdFloatMisc            0      0.00%     75.96% # Class of committed instruction. (Count)
system.cpu.commitStats0.committedInstType::SimdFloatMult         2688      0.01%     75.97% # Class of committed instruction. (Count)
system.cpu.commitStats0.committedInstType::SimdFloatMultAcc            0      0.00%     75.97% # Class of committed instruction. (Count)
system.cpu.commitStats0.committedInstType::SimdFloatMatMultAcc            0      0.00%     75.97% # Class of committed instruction. (Count)
system.cpu.commitStats0.committedInstType::SimdFloatSqrt            0      0.00%     75.97% # Class of committed instruction. (Count)
system.cpu.commitStats0.committedInstType::SimdReduceAdd            0      0.00%     75.97% # Class of committed instruction. (Count)
system.cpu.commitStats0.committedInstType::SimdReduceAlu            0      0.00%     75.97% # Class of committed instruction. (Count)
system.cpu.commitStats0.committedInstType::SimdReduceCmp            0      0.00%     75.97% # Class of committed instruction. (Count)
system.cpu.commitStats0.committedInstType::SimdFloatReduceAdd            0      0.00%     75.97% # Class of committed instruction. (Count)
system.cpu.commitStats0.committedInstType::SimdFloatReduceCmp            0      0.00%     75.97% # Class of committed instruction. (Count)
system.cpu.commitStats0.committedInstType::SimdAes            0      0.00%     75.97% # Class of committed instruction. (Count)
system.cpu.commitStats0.committedInstType::SimdAesMix            0      0.00%     75.97% # Class of committed instruction. (Count)
system.cpu.commitStats0.committedInstType::SimdSha1Hash            0      0.00%     75.97% # Class of committed instruction. (Count)
system.cpu.commitStats0.committedInstType::SimdSha1Hash2            0      0.00%     75.97% # Class of committed instruction. (Count)
system.cpu.commitStats0.committedInstType::SimdSha256Hash            0      0.00%     75.97% # Class of committed instruction. (Count)
system.cpu.commitStats0.committedInstType::SimdSha256Hash2            0      0.00%     75.97% # Class of committed instruction. (Count)
system.cpu.commitStats0.committedInstType::SimdShaSigma2            0      0.00%     75.97% # Class of committed instruction. (Count)
system.cpu.commitStats0.committedInstType::SimdShaSigma3            0      0.00%     75.97% # Class of committed instruction. (Count)
system.cpu.commitStats0.committedInstType::SimdPredAlu            0      0.00%     75.97% # Class of committed instruction. (Count)
system.cpu.commitStats0.committedInstType::Matrix            0      0.00%     75.97% # Class of committed instruction. (Count)
system.cpu.commitStats0.committedInstType::MatrixMov            0      0.00%     75.97% # Class of committed instruction. (Count)
system.cpu.commitStats0.committedInstType::MatrixOP            0      0.00%     75.97% # Class of committed instruction. (Count)
system.cpu.commitStats0.committedInstType::MemRead      6749860     15.50%     91.47% # Class of committed instruction. (Count)
system.cpu.commitStats0.committedInstType::MemWrite      3674875      8.44%     99.91% # Class of committed instruction. (Count)
system.cpu.commitStats0.committedInstType::FloatMemRead        28159      0.06%     99.97% # Class of committed instruction. (Count)
system.cpu.commitStats0.committedInstType::FloatMemWrite        12358      0.03%    100.00% # Class of committed instruction. (Count)
system.cpu.commitStats0.committedInstType::IprAccess            0      0.00%    100.00% # Class of committed instruction. (Count)
system.cpu.commitStats0.committedInstType::InstPrefetch            0      0.00%    100.00% # Class of committed instruction. (Count)
system.cpu.commitStats0.committedInstType::SimdUnitStrideLoad            0      0.00%    100.00% # Class of committed instruction. (Count)
system.cpu.commitStats0.committedInstType::SimdUnitStrideStore            0      0.00%    100.00% # Class of committed instruction. (Count)
system.cpu.commitStats0.committedInstType::SimdUnitStrideMaskLoad            0      0.00%    100.00% # Class of committed instruction. (Count)
system.cpu.commitStats0.committedInstType::SimdUnitStrideMaskStore            0      0.00%    100.00% # Class of committed instruction. (Count)
system.cpu.commitStats0.committedInstType::SimdStridedLoad            0      0.00%    100.00% # Class of committed instruction. (Count)
system.cpu.commitStats0.committedInstType::SimdStridedStore            0      0.00%    100.00% # Class of committed instruction. (Count)
system.cpu.commitStats0.committedInstType::SimdIndexedLoad            0      0.00%    100.00% # Class of committed instruction. (Count)
system.cpu.commitStats0.committedInstType::SimdIndexedStore            0      0.00%    100.00% # Class of committed instruction. (Count)
system.cpu.commitStats0.committedInstType::SimdWholeRegisterLoad            0      0.00%    100.00% # Class of committed instruction. (Count)
system.cpu.commitStats0.committedInstType::SimdWholeRegisterStore            0      0.00%    100.00% # Class of committed instruction. (Count)
system.cpu.commitStats0.committedInstType::SimdUnitStrideFaultOnlyFirstLoad            0      0.00%    100.00% # Class of committed instruction. (Count)
system.cpu.commitStats0.committedInstType::SimdUnitStrideSegmentedLoad            0      0.00%    100.00% # Class of committed instruction. (Count)
system.cpu.commitStats0.committedInstType::SimdUnitStrideSegmentedStore            0      0.00%    100.00% # Class of committed instruction. (Count)
system.cpu.commitStats0.committedInstType::SimdExt            0      0.00%    100.00% # Class of committed instruction. (Count)
system.cpu.commitStats0.committedInstType::SimdFloatExt            0      0.00%    100.00% # Class of committed instruction. (Count)
system.cpu.commitStats0.committedInstType::SimdConfig            0      0.00%    100.00% # Class of committed instruction. (Count)
system.cpu.commitStats0.committedInstType::total     43549533                       # Class of committed instruction. (Count)
system.cpu.commitStats0.committedControl::IsControl      4895577                       # Class of control type instructions committed (Count)
system.cpu.commitStats0.committedControl::IsDirectControl      3687253                       # Class of control type instructions committed (Count)
system.cpu.commitStats0.committedControl::IsIndirectControl      1208324                       # Class of control type instructions committed (Count)
system.cpu.commitStats0.committedControl::IsCondControl      2772593                       # Class of control type instructions committed (Count)
system.cpu.commitStats0.committedControl::IsUncondControl      2122984                       # Class of control type instructions committed (Count)
system.cpu.commitStats0.committedControl::IsCall       909612                       # Class of control type instructions committed (Count)
system.cpu.commitStats0.committedControl::IsReturn       909608                       # Class of control type instructions committed (Count)
system.cpu.dcache.demandHits::cpu.data       10434963                       # number of demand (read+write) hits (Count)
system.cpu.dcache.demandHits::total          10434963                       # number of demand (read+write) hits (Count)
system.cpu.dcache.overallHits::cpu.data      10434963                       # number of overall hits (Count)
system.cpu.dcache.overallHits::total         10434963                       # number of overall hits (Count)
system.cpu.dcache.demandMisses::cpu.data        11805                       # number of demand (read+write) misses (Count)
system.cpu.dcache.demandMisses::total           11805                       # number of demand (read+write) misses (Count)
system.cpu.dcache.overallMisses::cpu.data        11805                       # number of overall misses (Count)
system.cpu.dcache.overallMisses::total          11805                       # number of overall misses (Count)
system.cpu.dcache.demandAccesses::cpu.data     10446768                       # number of demand (read+write) accesses (Count)
system.cpu.dcache.demandAccesses::total      10446768                       # number of demand (read+write) accesses (Count)
system.cpu.dcache.overallAccesses::cpu.data     10446768                       # number of overall (read+write) accesses (Count)
system.cpu.dcache.overallAccesses::total     10446768                       # number of overall (read+write) accesses (Count)
system.cpu.dcache.demandMissRate::cpu.data     0.001130                       # miss rate for demand accesses (Ratio)
system.cpu.dcache.demandMissRate::total      0.001130                       # miss rate for demand accesses (Ratio)
system.cpu.dcache.overallMissRate::cpu.data     0.001130                       # miss rate for overall accesses (Ratio)
system.cpu.dcache.overallMissRate::total     0.001130                       # miss rate for overall accesses (Ratio)
system.cpu.dcache.blockedCycles::no_mshrs            0                       # number of cycles access was blocked (Cycle)
system.cpu.dcache.blockedCycles::no_targets            0                       # number of cycles access was blocked (Cycle)
system.cpu.dcache.blockedCauses::no_mshrs            0                       # number of times access was blocked (Count)
system.cpu.dcache.blockedCauses::no_targets            0                       # number of times access was blocked (Count)
system.cpu.dcache.avgBlocked::no_mshrs            nan                       # average number of cycles each access was blocked ((Cycle/Count))
system.cpu.dcache.avgBlocked::no_targets          nan                       # average number of cycles each access was blocked ((Cycle/Count))
system.cpu.dcache.writebacks::writebacks         6848                       # number of writebacks (Count)
system.cpu.dcache.writebacks::total              6848                       # number of writebacks (Count)
system.cpu.dcache.replacements                  11295                       # number of replacements (Count)
system.cpu.dcache.LockedRMWReadReq.hits::cpu.data          151                       # number of LockedRMWReadReq hits (Count)
system.cpu.dcache.LockedRMWReadReq.hits::total          151                       # number of LockedRMWReadReq hits (Count)
system.cpu.dcache.LockedRMWReadReq.misses::cpu.data            2                       # number of LockedRMWReadReq misses (Count)
system.cpu.dcache.LockedRMWReadReq.misses::total            2                       # number of LockedRMWReadReq misses (Count)
system.cpu.dcache.LockedRMWReadReq.accesses::cpu.data          153                       # number of LockedRMWReadReq accesses(hits+misses) (Count)
system.cpu.dcache.LockedRMWReadReq.accesses::total          153                       # number of LockedRMWReadReq accesses(hits+misses) (Count)
system.cpu.dcache.LockedRMWReadReq.missRate::cpu.data     0.013072                       # miss rate for LockedRMWReadReq accesses (Ratio)
system.cpu.dcache.LockedRMWReadReq.missRate::total     0.013072                       # miss rate for LockedRMWReadReq accesses (Ratio)
system.cpu.dcache.LockedRMWWriteReq.hits::cpu.data          153                       # number of LockedRMWWriteReq hits (Count)
system.cpu.dcache.LockedRMWWriteReq.hits::total          153                       # number of LockedRMWWriteReq hits (Count)
system.cpu.dcache.LockedRMWWriteReq.accesses::cpu.data          153                       # number of LockedRMWWriteReq accesses(hits+misses) (Count)
system.cpu.dcache.LockedRMWWriteReq.accesses::total          153                       # number of LockedRMWWriteReq accesses(hits+misses) (Count)
system.cpu.dcache.ReadReq.hits::cpu.data      6762171                       # number of ReadReq hits (Count)
system.cpu.dcache.ReadReq.hits::total         6762171                       # number of ReadReq hits (Count)
system.cpu.dcache.ReadReq.misses::cpu.data         5447                       # number of ReadReq misses (Count)
system.cpu.dcache.ReadReq.misses::total          5447                       # number of ReadReq misses (Count)
system.cpu.dcache.ReadReq.accesses::cpu.data      6767618                       # number of ReadReq accesses(hits+misses) (Count)
system.cpu.dcache.ReadReq.accesses::total      6767618                       # number of ReadReq accesses(hits+misses) (Count)
system.cpu.dcache.ReadReq.missRate::cpu.data     0.000805                       # miss rate for ReadReq accesses (Ratio)
system.cpu.dcache.ReadReq.missRate::total     0.000805                       # miss rate for ReadReq accesses (Ratio)
system.cpu.dcache.WriteReq.hits::cpu.data      3672792                       # number of WriteReq hits (Count)
system.cpu.dcache.WriteReq.hits::total        3672792                       # number of WriteReq hits (Count)
system.cpu.dcache.WriteReq.misses::cpu.data         6358                       # number of WriteReq misses (Count)
system.cpu.dcache.WriteReq.misses::total         6358                       # number of WriteReq misses (Count)
system.cpu.dcache.WriteReq.accesses::cpu.data      3679150                       # number of WriteReq accesses(hits+misses) (Count)
system.cpu.dcache.WriteReq.accesses::total      3679150                       # number of WriteReq accesses(hits+misses) (Count)
system.cpu.dcache.WriteReq.missRate::cpu.data     0.001728                       # miss rate for WriteReq accesses (Ratio)
system.cpu.dcache.WriteReq.missRate::total     0.001728                       # miss rate for WriteReq accesses (Ratio)
system.cpu.dcache.power_state.pwrStateResidencyTicks::UNDEFINED  15658216250                       # Cumulative time (in ticks) in various power states (Tick)
system.cpu.dcache.tags.tagsInUse           511.515138                       # Average ticks per tags in use ((Tick/Count))
system.cpu.dcache.tags.totalRefs             10447074                       # Total number of references to valid blocks. (Count)
system.cpu.dcache.tags.sampledRefs              11807                       # Sample count of references to valid blocks. (Count)
system.cpu.dcache.tags.avgRefs             884.820361                       # Average number of references to valid blocks. ((Count/Count))
system.cpu.dcache.tags.warmupTick                 939                       # The tick when the warmup percentage was hit. (Tick)
system.cpu.dcache.tags.occupancies::cpu.data   511.515138                       # Average occupied blocks per tick, per requestor ((Count/Tick))
system.cpu.dcache.tags.avgOccs::cpu.data     0.999053                       # Average percentage of cache occupancy ((Ratio/Tick))
system.cpu.dcache.tags.avgOccs::total        0.999053                       # Average percentage of cache occupancy ((Ratio/Tick))
system.cpu.dcache.tags.occupanciesTaskId::1024          512                       # Occupied blocks per task id (Count)
system.cpu.dcache.tags.ageTaskId_1024::0          126                       # Occupied blocks per task id, per block age (Count)
system.cpu.dcache.tags.ageTaskId_1024::1            1                       # Occupied blocks per task id, per block age (Count)
system.cpu.dcache.tags.ageTaskId_1024::2          307                       # Occupied blocks per task id, per block age (Count)
system.cpu.dcache.tags.ageTaskId_1024::3           67                       # Occupied blocks per task id, per block age (Count)
system.cpu.dcache.tags.ageTaskId_1024::4           11                       # Occupied blocks per task id, per block age (Count)
system.cpu.dcache.tags.ratioOccsTaskId::1024            1                       # Ratio of occupied blocks and all blocks, per task id (Ratio)
system.cpu.dcache.tags.tagAccesses           20905955                       # Number of tag accesses (Count)
system.cpu.dcache.tags.dataAccesses          20905955                       # Number of data accesses (Count)
system.cpu.dcache.tags.power_state.pwrStateResidencyTicks::UNDEFINED  15658216250                       # Cumulative time (in ticks) in various power states (Tick)
system.cpu.dtb_walker_cache.blockedCycles::no_mshrs            0                       # number of cycles access was blocked (Cycle)
system.cpu.dtb_walker_cache.blockedCycles::no_targets            0                       # number of cycles access was blocked (Cycle)
system.cpu.dtb_walker_cache.blockedCauses::no_mshrs            0                       # number of times access was blocked (Count)
system.cpu.dtb_walker_cache.blockedCauses::no_targets            0                       # number of times access was blocked (Count)
system.cpu.dtb_walker_cache.avgBlocked::no_mshrs          nan                       # average number of cycles each access was blocked ((Cycle/Count))
system.cpu.dtb_walker_cache.avgBlocked::no_targets          nan                       # average number of cycles each access was blocked ((Cycle/Count))
system.cpu.dtb_walker_cache.replacements            0                       # number of replacements (Count)
system.cpu.dtb_walker_cache.power_state.pwrStateResidencyTicks::UNDEFINED  15658216250                       # Cumulative time (in ticks) in various power states (Tick)
system.cpu.dtb_walker_cache.tags.tagsInUse            0                       # Average ticks per tags in use ((Tick/Count))
system.cpu.dtb_walker_cache.tags.totalRefs            0                       # Total number of references to valid blocks. (Count)
system.cpu.dtb_walker_cache.tags.sampledRefs            0                       # Sample count of references to valid blocks. (Count)
system.cpu.dtb_walker_cache.tags.avgRefs          nan                       # Average number of references to valid blocks. ((Count/Count))
system.cpu.dtb_walker_cache.tags.warmupTick            0                       # The tick when the warmup percentage was hit. (Tick)
system.cpu.dtb_walker_cache.tags.tagAccesses            0                       # Number of tag accesses (Count)
system.cpu.dtb_walker_cache.tags.dataAccesses            0                       # Number of data accesses (Count)
system.cpu.dtb_walker_cache.tags.power_state.pwrStateResidencyTicks::UNDEFINED  15658216250                       # Cumulative time (in ticks) in various power states (Tick)
system.cpu.exec_context.thread_0.numMatAluAccesses            0                       # Number of matrix alu accesses (Count)
system.cpu.exec_context.thread_0.numCallsReturns      1819220                       # Number of times a function call or return occured (Count)
system.cpu.exec_context.thread_0.numMatInsts            0                       # Number of matrix instructions (Count)
system.cpu.exec_context.thread_0.numIdleCycles     0.003195                       # Number of idle cycles (Cycle)
system.cpu.exec_context.thread_0.numBusyCycles 50026608.996805                       # Number of busy cycles (Cycle)
system.cpu.exec_context.thread_0.notIdleFraction     1.000000                       # Percentage of non-idle cycles (Ratio)
system.cpu.exec_context.thread_0.idleFraction     0.000000                       # Percentage of idle cycles (Ratio)
system.cpu.executeStats0.numInsts                   0                       # Number of executed instructions (Count)
system.cpu.executeStats0.numNop                     0                       # Number of nop insts executed (Count)
system.cpu.executeStats0.numBranches                0                       # Number of branches executed (Count)
system.cpu.executeStats0.numLoadInsts               0                       # Number of load instructions executed (Count)
system.cpu.executeStats0.numStoreInsts       10465252                       # Number of stores executed (Count)
system.cpu.executeStats0.instRate                   0                       # Inst execution rate ((Count/Cycle))
system.cpu.executeStats0.numFpAluAccesses       104615                       # Number of float alu accesses (Count)
system.cpu.executeStats0.numFpRegReads          93262                       # Number of times the floating registers were read (Count)
system.cpu.executeStats0.numFpRegWrites         83301                       # Number of times the floating registers were written (Count)
system.cpu.executeStats0.numIntAluAccesses     43481582                       # Number of integer alu accesses (Count)
system.cpu.executeStats0.numIntRegReads      51425736                       # Number of times the integer registers were read (Count)
system.cpu.executeStats0.numIntRegWrites     32133892                       # Number of times the integer registers were written (Count)
system.cpu.executeStats0.numMemRefs          10465252                       # Number of memory refs (Count)
system.cpu.executeStats0.numMiscRegReads     20832781                       # Number of times the Misc registers were read (Count)
system.cpu.executeStats0.numMiscRegWrites          234                       # Number of times the Misc registers were written (Count)
system.cpu.executeStats0.numVecAluAccesses            0                       # Number of vector alu accesses (Count)
system.cpu.executeStats0.numDiscardedOps            0                       # Number of ops (including micro ops) which were discarded before commit (Count)
system.cpu.fetchStats0.numInsts              22133232                       # Number of instructions fetched (thread level) (Count)
system.cpu.fetchStats0.numOps                43549533                       # Number of ops (including micro ops) fetched (thread level) (Count)
system.cpu.fetchStats0.fetchRate             0.442429                       # Number of inst fetches per cycle ((Count/Cycle))
system.cpu.fetchStats0.numBranches            4895577                       # Number of branches fetched (Count)
system.cpu.fetchStats0.branchRate            0.097859                       # Number of branch fetches per cycle (Ratio)
system.cpu.fetchStats0.numFetchSuspends             0                       # Number of times Execute suspended instruction fetching (Count)
system.cpu.icache.demandHits::cpu.inst       28607773                       # number of demand (read+write) hits (Count)
system.cpu.icache.demandHits::total          28607773                       # number of demand (read+write) hits (Count)
system.cpu.icache.overallHits::cpu.inst      28607773                       # number of overall hits (Count)
system.cpu.icache.overallHits::total         28607773                       # number of overall hits (Count)
system.cpu.icache.demandMisses::cpu.inst         2519                       # number of demand (read+write) misses (Count)
system.cpu.icache.demandMisses::total            2519                       # number of demand (read+write) misses (Count)
system.cpu.icache.overallMisses::cpu.inst         2519                       # number of overall misses (Count)
system.cpu.icache.overallMisses::total           2519                       # number of overall misses (Count)
system.cpu.icache.demandAccesses::cpu.inst     28610292                       # number of demand (read+write) accesses (Count)
system.cpu.icache.demandAccesses::total      28610292                       # number of demand (read+write) accesses (Count)
system.cpu.icache.overallAccesses::cpu.inst     28610292                       # number of overall (read+write) accesses (Count)
system.cpu.icache.overallAccesses::total     28610292                       # number of overall (read+write) accesses (Count)
system.cpu.icache.demandMissRate::cpu.inst     0.000088                       # miss rate for demand accesses (Ratio)
system.cpu.icache.demandMissRate::total      0.000088                       # miss rate for demand accesses (Ratio)
system.cpu.icache.overallMissRate::cpu.inst     0.000088                       # miss rate for overall accesses (Ratio)
system.cpu.icache.overallMissRate::total     0.000088                       # miss rate for overall accesses (Ratio)
system.cpu.icache.blockedCycles::no_mshrs            0                       # number of cycles access was blocked (Cycle)
system.cpu.icache.blockedCycles::no_targets            0                       # number of cycles access was blocked (Cycle)
system.cpu.icache.blockedCauses::no_mshrs            0                       # number of times access was blocked (Count)
system.cpu.icache.blockedCauses::no_targets            0                       # number of times access was blocked (Count)
system.cpu.icache.avgBlocked::no_mshrs            nan                       # average number of cycles each access was blocked ((Cycle/Count))
system.cpu.icache.avgBlocked::no_targets          nan                       # average number of cycles each access was blocked ((Cycle/Count))
system.cpu.icache.writebacks::writebacks         2008                       # number of writebacks (Count)
system.cpu.icache.writebacks::total              2008                       # number of writebacks (Count)
system.cpu.icache.replacements                   2008                       # number of replacements (Count)
system.cpu.icache.ReadReq.hits::cpu.inst     28607773                       # number of ReadReq hits (Count)
system.cpu.icache.ReadReq.hits::total        28607773                       # number of ReadReq hits (Count)
system.cpu.icache.ReadReq.misses::cpu.inst         2519                       # number of ReadReq misses (Count)
system.cpu.icache.ReadReq.misses::total          2519                       # number of ReadReq misses (Count)
system.cpu.icache.ReadReq.accesses::cpu.inst     28610292                       # number of ReadReq accesses(hits+misses) (Count)
system.cpu.icache.ReadReq.accesses::total     28610292                       # number of ReadReq accesses(hits+misses) (Count)
system.cpu.icache.ReadReq.missRate::cpu.inst     0.000088                       # miss rate for ReadReq accesses (Ratio)
system.cpu.icache.ReadReq.missRate::total     0.000088                       # miss rate for ReadReq accesses (Ratio)
system.cpu.icache.power_state.pwrStateResidencyTicks::UNDEFINED  15658216250                       # Cumulative time (in ticks) in various power states (Tick)
system.cpu.icache.tags.tagsInUse           506.849004                       # Average ticks per tags in use ((Tick/Count))
system.cpu.icache.tags.totalRefs             28610292                       # Total number of references to valid blocks. (Count)
system.cpu.icache.tags.sampledRefs               2519                       # Sample count of references to valid blocks. (Count)
system.cpu.icache.tags.avgRefs           11357.797539                       # Average number of references to valid blocks. ((Count/Count))
system.cpu.icache.tags.warmupTick                   0                       # The tick when the warmup percentage was hit. (Tick)
system.cpu.icache.tags.occupancies::cpu.inst   506.849004                       # Average occupied blocks per tick, per requestor ((Count/Tick))
system.cpu.icache.tags.avgOccs::cpu.inst     0.989939                       # Average percentage of cache occupancy ((Ratio/Tick))
system.cpu.icache.tags.avgOccs::total        0.989939                       # Average percentage of cache occupancy ((Ratio/Tick))
system.cpu.icache.tags.occupanciesTaskId::1024          511                       # Occupied blocks per task id (Count)
system.cpu.icache.tags.ageTaskId_1024::0          166                       # Occupied blocks per task id, per block age (Count)
system.cpu.icache.tags.ageTaskId_1024::1           17                       # Occupied blocks per task id, per block age (Count)
system.cpu.icache.tags.ageTaskId_1024::2           86                       # Occupied blocks per task id, per block age (Count)
system.cpu.icache.tags.ageTaskId_1024::4          242                       # Occupied blocks per task id, per block age (Count)
system.cpu.icache.tags.ratioOccsTaskId::1024     0.998047                       # Ratio of occupied blocks and all blocks, per task id (Ratio)
system.cpu.icache.tags.tagAccesses           57223103                       # Number of tag accesses (Count)
system.cpu.icache.tags.dataAccesses          57223103                       # Number of data accesses (Count)
system.cpu.icache.tags.power_state.pwrStateResidencyTicks::UNDEFINED  15658216250                       # Cumulative time (in ticks) in various power states (Tick)
system.cpu.interrupts.clk_domain.clock           5008                       # Clock period in ticks (Tick)
system.cpu.itb_walker_cache.blockedCycles::no_mshrs            0                       # number of cycles access was blocked (Cycle)
system.cpu.itb_walker_cache.blockedCycles::no_targets            0                       # number of cycles access was blocked (Cycle)
system.cpu.itb_walker_cache.blockedCauses::no_mshrs            0                       # number of times access was blocked (Count)
system.cpu.itb_walker_cache.blockedCauses::no_targets            0                       # number of times access was blocked (Count)
system.cpu.itb_walker_cache.avgBlocked::no_mshrs          nan                       # average number of cycles each access was blocked ((Cycle/Count))
system.cpu.itb_walker_cache.avgBlocked::no_targets          nan                       # average number of cycles each access was blocked ((Cycle/Count))
system.cpu.itb_walker_cache.replacements            0                       # number of replacements (Count)
system.cpu.itb_walker_cache.power_state.pwrStateResidencyTicks::UNDEFINED  15658216250                       # Cumulative time (in ticks) in various power states (Tick)
system.cpu.itb_walker_cache.tags.tagsInUse            0                       # Average ticks per tags in use ((Tick/Count))
system.cpu.itb_walker_cache.tags.totalRefs            0                       # Total number of references to valid blocks. (Count)
system.cpu.itb_walker_cache.tags.sampledRefs            0                       # Sample count of references to valid blocks. (Count)
system.cpu.itb_walker_cache.tags.avgRefs          nan                       # Average number of references to valid blocks. ((Count/Count))
system.cpu.itb_walker_cache.tags.warmupTick            0                       # The tick when the warmup percentage was hit. (Tick)
system.cpu.itb_walker_cache.tags.tagAccesses            0                       # Number of tag accesses (Count)
system.cpu.itb_walker_cache.tags.dataAccesses            0                       # Number of data accesses (Count)
system.cpu.itb_walker_cache.tags.power_state.pwrStateResidencyTicks::UNDEFINED  15658216250                       # Cumulative time (in ticks) in various power states (Tick)
system.cpu.mmu.dtb.rdAccesses                 6778033                       # TLB accesses on read requests (Count)
system.cpu.mmu.dtb.wrAccesses                 3687254                       # TLB accesses on write requests (Count)
system.cpu.mmu.dtb.rdMisses                       491                       # TLB misses on read requests (Count)
system.cpu.mmu.dtb.wrMisses                       241                       # TLB misses on write requests (Count)
system.cpu.mmu.dtb.walker.power_state.pwrStateResidencyTicks::UNDEFINED  15658216250                       # Cumulative time (in ticks) in various power states (Tick)
system.cpu.mmu.itb.rdAccesses                       0                       # TLB accesses on read requests (Count)
system.cpu.mmu.itb.wrAccesses                28610365                       # TLB accesses on write requests (Count)
system.cpu.mmu.itb.rdMisses                         0                       # TLB misses on read requests (Count)
system.cpu.mmu.itb.wrMisses                       528                       # TLB misses on write requests (Count)
system.cpu.mmu.itb.walker.power_state.pwrStateResidencyTicks::UNDEFINED  15658216250                       # Cumulative time (in ticks) in various power states (Tick)
system.cpu.power_state.pwrStateResidencyTicks::ON  15658216250                       # Cumulative time (in ticks) in various power states (Tick)
system.cpu.thread_0.numInsts                        0                       # Number of Instructions committed (Count)
system.cpu.thread_0.numOps                          0                       # Number of Ops committed (Count)
system.cpu.thread_0.numMemRefs                      0                       # Number of Memory References (Count)
system.cpu.workload.numSyscalls                   109                       # Number of system calls (Count)
system.cpu_clk_domain.clock                       313                       # Clock period in ticks (Tick)
system.cpu_voltage_domain.voltage                   1                       # Voltage in Volts (Volt)
system.l2.demandHits::cpu.inst                    700                       # number of demand (read+write) hits (Count)
system.l2.demandHits::cpu.data                   2073                       # number of demand (read+write) hits (Count)
system.l2.demandHits::total                      2773                       # number of demand (read+write) hits (Count)
system.l2.overallHits::cpu.inst                   700                       # number of overall hits (Count)
system.l2.overallHits::cpu.data                  2073                       # number of overall hits (Count)
system.l2.overallHits::total                     2773                       # number of overall hits (Count)
system.l2.demandMisses::cpu.inst                 1819                       # number of demand (read+write) misses (Count)
system.l2.demandMisses::cpu.data                 9734                       # number of demand (read+write) misses (Count)
system.l2.demandMisses::total                   11553                       # number of demand (read+write) misses (Count)
system.l2.overallMisses::cpu.inst                1819                       # number of overall misses (Count)
system.l2.overallMisses::cpu.data                9734                       # number of overall misses (Count)
system.l2.overallMisses::total                  11553                       # number of overall misses (Count)
system.l2.demandAccesses::cpu.inst               2519                       # number of demand (read+write) accesses (Count)
system.l2.demandAccesses::cpu.data              11807                       # number of demand (read+write) accesses (Count)
system.l2.demandAccesses::total                 14326                       # number of demand (read+write) accesses (Count)
system.l2.overallAccesses::cpu.inst              2519                       # number of overall (read+write) accesses (Count)
system.l2.overallAccesses::cpu.data             11807                       # number of overall (read+write) accesses (Count)
system.l2.overallAccesses::total                14326                       # number of overall (read+write) accesses (Count)
system.l2.demandMissRate::cpu.inst           0.722112                       # miss rate for demand accesses (Ratio)
system.l2.demandMissRate::cpu.data           0.824426                       # miss rate for demand accesses (Ratio)
system.l2.demandMissRate::total              0.806436                       # miss rate for demand accesses (Ratio)
system.l2.overallMissRate::cpu.inst          0.722112                       # miss rate for overall accesses (Ratio)
system.l2.overallMissRate::cpu.data          0.824426                       # miss rate for overall accesses (Ratio)
system.l2.overallMissRate::total             0.806436                       # miss rate for overall accesses (Ratio)
system.l2.blockedCycles::no_mshrs                   0                       # number of cycles access was blocked (Cycle)
system.l2.blockedCycles::no_targets                 0                       # number of cycles access was blocked (Cycle)
system.l2.blockedCauses::no_mshrs                   0                       # number of times access was blocked (Count)
system.l2.blockedCauses::no_targets                 0                       # number of times access was blocked (Count)
system.l2.avgBlocked::no_mshrs                    nan                       # average number of cycles each access was blocked ((Cycle/Count))
system.l2.avgBlocked::no_targets                  nan                       # average number of cycles each access was blocked ((Cycle/Count))
system.l2.replacements                              0                       # number of replacements (Count)
system.l2.ReadCleanReq.hits::cpu.inst             700                       # number of ReadCleanReq hits (Count)
system.l2.ReadCleanReq.hits::total                700                       # number of ReadCleanReq hits (Count)
system.l2.ReadCleanReq.misses::cpu.inst          1819                       # number of ReadCleanReq misses (Count)
system.l2.ReadCleanReq.misses::total             1819                       # number of ReadCleanReq misses (Count)
system.l2.ReadCleanReq.accesses::cpu.inst         2519                       # number of ReadCleanReq accesses(hits+misses) (Count)
system.l2.ReadCleanReq.accesses::total           2519                       # number of ReadCleanReq accesses(hits+misses) (Count)
system.l2.ReadCleanReq.missRate::cpu.inst     0.722112                       # miss rate for ReadCleanReq accesses (Ratio)
system.l2.ReadCleanReq.missRate::total       0.722112                       # miss rate for ReadCleanReq accesses (Ratio)
system.l2.ReadExReq.hits::cpu.data                224                       # number of ReadExReq hits (Count)
system.l2.ReadExReq.hits::total                   224                       # number of ReadExReq hits (Count)
system.l2.ReadExReq.misses::cpu.data             6136                       # number of ReadExReq misses (Count)
system.l2.ReadExReq.misses::total                6136                       # number of ReadExReq misses (Count)
system.l2.ReadExReq.accesses::cpu.data           6360                       # number of ReadExReq accesses(hits+misses) (Count)
system.l2.ReadExReq.accesses::total              6360                       # number of ReadExReq accesses(hits+misses) (Count)
system.l2.ReadExReq.missRate::cpu.data       0.964780                       # miss rate for ReadExReq accesses (Ratio)
system.l2.ReadExReq.missRate::total          0.964780                       # miss rate for ReadExReq accesses (Ratio)
system.l2.ReadSharedReq.hits::cpu.data           1849                       # number of ReadSharedReq hits (Count)
system.l2.ReadSharedReq.hits::total              1849                       # number of ReadSharedReq hits (Count)
system.l2.ReadSharedReq.misses::cpu.data         3598                       # number of ReadSharedReq misses (Count)
system.l2.ReadSharedReq.misses::total            3598                       # number of ReadSharedReq misses (Count)
system.l2.ReadSharedReq.accesses::cpu.data         5447                       # number of ReadSharedReq accesses(hits+misses) (Count)
system.l2.ReadSharedReq.accesses::total          5447                       # number of ReadSharedReq accesses(hits+misses) (Count)
system.l2.ReadSharedReq.missRate::cpu.data     0.660547                       # miss rate for ReadSharedReq accesses (Ratio)
system.l2.ReadSharedReq.missRate::total      0.660547                       # miss rate for ReadSharedReq accesses (Ratio)
system.l2.WritebackClean.hits::writebacks         2008                       # number of WritebackClean hits (Count)
system.l2.WritebackClean.hits::total             2008                       # number of WritebackClean hits (Count)
system.l2.WritebackClean.accesses::writebacks         2008                       # number of WritebackClean accesses(hits+misses) (Count)
system.l2.WritebackClean.accesses::total         2008                       # number of WritebackClean accesses(hits+misses) (Count)
system.l2.WritebackDirty.hits::writebacks         6848                       # number of WritebackDirty hits (Count)
system.l2.WritebackDirty.hits::total             6848                       # number of WritebackDirty hits (Count)
system.l2.WritebackDirty.accesses::writebacks         6848                       # number of WritebackDirty accesses(hits+misses) (Count)
system.l2.WritebackDirty.accesses::total         6848                       # number of WritebackDirty accesses(hits+misses) (Count)
system.l2.power_state.pwrStateResidencyTicks::UNDEFINED  15658216250                       # Cumulative time (in ticks) in various power states (Tick)
system.l2.tags.tagsInUse                  8932.465188                       # Average ticks per tags in use ((Tick/Count))
system.l2.tags.totalRefs                        27629                       # Total number of references to valid blocks. (Count)
system.l2.tags.sampledRefs                      11553                       # Sample count of references to valid blocks. (Count)
system.l2.tags.avgRefs                       2.391500                       # Average number of references to valid blocks. ((Count/Count))
system.l2.tags.warmupTick                           0                       # The tick when the warmup percentage was hit. (Tick)
system.l2.tags.occupancies::cpu.inst      1556.746341                       # Average occupied blocks per tick, per requestor ((Count/Tick))
system.l2.tags.occupancies::cpu.data      7375.718847                       # Average occupied blocks per tick, per requestor ((Count/Tick))
system.l2.tags.avgOccs::cpu.inst             0.047508                       # Average percentage of cache occupancy ((Ratio/Tick))
system.l2.tags.avgOccs::cpu.data             0.225089                       # Average percentage of cache occupancy ((Ratio/Tick))
system.l2.tags.avgOccs::total                0.272597                       # Average percentage of cache occupancy ((Ratio/Tick))
system.l2.tags.occupanciesTaskId::1024          11552                       # Occupied blocks per task id (Count)
system.l2.tags.ageTaskId_1024::0                  142                       # Occupied blocks per task id, per block age (Count)
system.l2.tags.ageTaskId_1024::1                    4                       # Occupied blocks per task id, per block age (Count)
system.l2.tags.ageTaskId_1024::2                  327                       # Occupied blocks per task id, per block age (Count)
system.l2.tags.ageTaskId_1024::3                 2757                       # Occupied blocks per task id, per block age (Count)
system.l2.tags.ageTaskId_1024::4                 8322                       # Occupied blocks per task id, per block age (Count)
system.l2.tags.ratioOccsTaskId::1024         0.352539                       # Ratio of occupied blocks and all blocks, per task id (Ratio)
system.l2.tags.tagAccesses                     232585                       # Number of tag accesses (Count)
system.l2.tags.dataAccesses                    232585                       # Number of data accesses (Count)
system.l2.tags.power_state.pwrStateResidencyTicks::UNDEFINED  15658216250                       # Cumulative time (in ticks) in various power states (Tick)
system.mem_ctrls.bytesRead::cpu.inst           116416                       # Number of bytes read from this memory (Byte)
system.mem_ctrls.bytesRead::cpu.data           690918                       # Number of bytes read from this memory (Byte)
system.mem_ctrls.bytesRead::total              807334                       # Number of bytes read from this memory (Byte)
system.mem_ctrls.bytesInstRead::cpu.inst       116416                       # Number of instructions bytes read from this memory (Byte)
system.mem_ctrls.bytesInstRead::total          116416                       # Number of instructions bytes read from this memory (Byte)
system.mem_ctrls.bytesWritten::cpu.data         43874                       # Number of bytes written to this memory (Byte)
system.mem_ctrls.bytesWritten::total            43874                       # Number of bytes written to this memory (Byte)
system.mem_ctrls.numReads::cpu.inst              1819                       # Number of read requests responded to by this memory (Count)
system.mem_ctrls.numReads::cpu.data             19926                       # Number of read requests responded to by this memory (Count)
system.mem_ctrls.numReads::total                21745                       # Number of read requests responded to by this memory (Count)
system.mem_ctrls.numWrites::cpu.data             7845                       # Number of write requests responded to by this memory (Count)
system.mem_ctrls.numWrites::total                7845                       # Number of write requests responded to by this memory (Count)
system.mem_ctrls.bwRead::cpu.inst             7434819                       # Total read bandwidth from this memory ((Byte/Second))
system.mem_ctrls.bwRead::cpu.data            44124949                       # Total read bandwidth from this memory ((Byte/Second))
system.mem_ctrls.bwRead::total               51559768                       # Total read bandwidth from this memory ((Byte/Second))
system.mem_ctrls.bwInstRead::cpu.inst         7434819                       # Instruction read bandwidth from this memory ((Byte/Second))
system.mem_ctrls.bwInstRead::total            7434819                       # Instruction read bandwidth from this memory ((Byte/Second))
system.mem_ctrls.bwWrite::cpu.data            2801979                       # Write bandwidth from this memory ((Byte/Second))
system.mem_ctrls.bwWrite::total               2801979                       # Write bandwidth from this memory ((Byte/Second))
system.mem_ctrls.bwTotal::cpu.inst            7434819                       # Total bandwidth to/from this memory ((Byte/Second))
system.mem_ctrls.bwTotal::cpu.data           46926929                       # Total bandwidth to/from this memory ((Byte/Second))
system.mem_ctrls.bwTotal::total              54361748                       # Total bandwidth to/from this memory ((Byte/Second))
system.mem_ctrls.power_state.pwrStateResidencyTicks::UNDEFINED  15658216250                       # Cumulative time (in ticks) in various power states (Tick)
system.membus.transDist::ReadReq                10192                       # Transaction distribution (Count)
system.membus.transDist::ReadResp               15609                       # Transaction distribution (Count)
system.membus.transDist::WriteReq                7845                       # Transaction distribution (Count)
system.membus.transDist::WriteResp               7845                       # Transaction distribution (Count)
system.membus.transDist::CleanEvict                 1                       # Transaction distribution (Count)
system.membus.transDist::ReadExReq               6136                       # Transaction distribution (Count)
system.membus.transDist::ReadExResp              6136                       # Transaction distribution (Count)
system.membus.transDist::ReadSharedReq           5417                       # Transaction distribution (Count)
system.membus.pktCount_system.l2.mem_side_port::system.mem_ctrls.port        59181                       # Packet count per connected requestor and responder (Count)
system.membus.pktCount_system.l2.mem_side_port::total        59181                       # Packet count per connected requestor and responder (Count)
system.membus.pktCount::total                   59181                       # Packet count per connected requestor and responder (Count)
system.membus.pktSize_system.l2.mem_side_port::system.mem_ctrls.port       851208                       # Cumulative packet size per connected requestor and responder (Byte)
system.membus.pktSize_system.l2.mem_side_port::total       851208                       # Cumulative packet size per connected requestor and responder (Byte)
system.membus.pktSize::total                   851208                       # Cumulative packet size per connected requestor and responder (Byte)
system.membus.snoops                                0                       # Total snoops (Count)
system.membus.snoopTraffic                          0                       # Total snoop traffic (Byte)
system.membus.snoopFanout::samples              29590                       # Request fanout histogram (Count)
system.membus.snoopFanout::mean                     0                       # Request fanout histogram (Count)
system.membus.snoopFanout::stdev                    0                       # Request fanout histogram (Count)
system.membus.snoopFanout::underflows               0      0.00%      0.00% # Request fanout histogram (Count)
system.membus.snoopFanout::0                    29590    100.00%    100.00% # Request fanout histogram (Count)
system.membus.snoopFanout::1                        0      0.00%    100.00% # Request fanout histogram (Count)
system.membus.snoopFanout::overflows                0      0.00%    100.00% # Request fanout histogram (Count)
system.membus.snoopFanout::min_value                0                       # Request fanout histogram (Count)
system.membus.snoopFanout::max_value                0                       # Request fanout histogram (Count)
system.membus.snoopFanout::total                29590                       # Request fanout histogram (Count)
system.membus.power_state.pwrStateResidencyTicks::UNDEFINED  15658216250                       # Cumulative time (in ticks) in various power states (Tick)
system.membus.snoop_filter.totRequests          11554                       # Total number of requests made to the snoop filter. (Count)
system.membus.snoop_filter.hitSingleRequests            1                       # Number of requests hitting in the snoop filter with a single holder of the requested data. (Count)
system.membus.snoop_filter.hitMultiRequests            0                       # Number of requests hitting in the snoop filter with multiple (>1) holders of the requested data. (Count)
system.membus.snoop_filter.totSnoops                0                       # Total number of snoops made to the snoop filter. (Count)
system.membus.snoop_filter.hitSingleSnoops            0                       # Number of snoops hitting in the snoop filter with a single holder of the requested data. (Count)
system.membus.snoop_filter.hitMultiSnoops            0                       # Number of snoops hitting in the snoop filter with multiple (>1) holders of the requested data. (Count)
system.tol2bus.transDist::ReadReq               10192                       # Transaction distribution (Count)
system.tol2bus.transDist::ReadResp              18158                       # Transaction distribution (Count)
system.tol2bus.transDist::WriteReq               7845                       # Transaction distribution (Count)
system.tol2bus.transDist::WriteResp              7845                       # Transaction distribution (Count)
system.tol2bus.transDist::WritebackDirty         6848                       # Transaction distribution (Count)
system.tol2bus.transDist::WritebackClean         2008                       # Transaction distribution (Count)
system.tol2bus.transDist::CleanEvict             4447                       # Transaction distribution (Count)
system.tol2bus.transDist::ReadExReq              6360                       # Transaction distribution (Count)
system.tol2bus.transDist::ReadExResp             6360                       # Transaction distribution (Count)
system.tol2bus.transDist::ReadCleanReq           2519                       # Transaction distribution (Count)
system.tol2bus.transDist::ReadSharedReq          5447                       # Transaction distribution (Count)
system.tol2bus.pktCount_system.cpu.icache.mem_side_port::system.l2.cpu_side_port         7046                       # Packet count per connected requestor and responder (Count)
system.tol2bus.pktCount_system.cpu.dcache.mem_side_port::system.l2.cpu_side_port        70983                       # Packet count per connected requestor and responder (Count)
system.tol2bus.pktCount::total                  78029                       # Packet count per connected requestor and responder (Count)
system.tol2bus.pktSize_system.cpu.icache.mem_side_port::system.l2.cpu_side_port       289728                       # Cumulative packet size per connected requestor and responder (Byte)
system.tol2bus.pktSize_system.cpu.dcache.mem_side_port::system.l2.cpu_side_port      1305736                       # Cumulative packet size per connected requestor and responder (Byte)
system.tol2bus.pktSize::total                 1595464                       # Cumulative packet size per connected requestor and responder (Byte)
system.tol2bus.snoops                               1                       # Total snoops (Count)
system.tol2bus.snoopTraffic                         0                       # Total snoop traffic (Byte)
system.tol2bus.snoopFanout::samples             32364                       # Request fanout histogram (Count)
system.tol2bus.snoopFanout::mean                    0                       # Request fanout histogram (Count)
system.tol2bus.snoopFanout::stdev                   0                       # Request fanout histogram (Count)
system.tol2bus.snoopFanout::underflows              0      0.00%      0.00% # Request fanout histogram (Count)
system.tol2bus.snoopFanout::0                   32364    100.00%    100.00% # Request fanout histogram (Count)
system.tol2bus.snoopFanout::1                       0      0.00%    100.00% # Request fanout histogram (Count)
system.tol2bus.snoopFanout::2                       0      0.00%    100.00% # Request fanout histogram (Count)
system.tol2bus.snoopFanout::3                       0      0.00%    100.00% # Request fanout histogram (Count)
system.tol2bus.snoopFanout::4                       0      0.00%    100.00% # Request fanout histogram (Count)
system.tol2bus.snoopFanout::overflows               0      0.00%    100.00% # Request fanout histogram (Count)
system.tol2bus.snoopFanout::min_value               0                       # Request fanout histogram (Count)
system.tol2bus.snoopFanout::max_value               0                       # Request fanout histogram (Count)
system.tol2bus.snoopFanout::total               32364                       # Request fanout histogram (Count)
system.tol2bus.power_state.pwrStateResidencyTicks::UNDEFINED  15658216250                       # Cumulative time (in ticks) in various power states (Tick)
system.tol2bus.snoop_filter.totRequests         27629                       # Total number of requests made to the snoop filter. (Count)
system.tol2bus.snoop_filter.hitSingleRequests        13303                       # Number of requests hitting in the snoop filter with a single holder of the requested data. (Count)
system.tol2bus.snoop_filter.hitMultiRequests            0                       # Number of requests hitting in the snoop filter with multiple (>1) holders of the requested data. (Count)
system.tol2bus.snoop_filter.totSnoops               0                       # Total number of snoops made to the snoop filter. (Count)
system.tol2bus.snoop_filter.hitSingleSnoops            0                       # Number of snoops hitting in the snoop filter with a single holder of the requested data. (Count)
system.tol2bus.snoop_filter.hitMultiSnoops            0                       # Number of snoops hitting in the snoop filter with multiple (>1) holders of the requested data. (Count)
system.voltage_domain.voltage                       1                       # Voltage in Volts (Volt)
system.workload.inst.arm                            0                       # number of arm instructions executed (Count)
system.workload.inst.quiesce                        0                       # number of quiesce instructions executed (Count)

---------- End Simulation Statistics   ----------
