
---------- Begin Simulation Statistics ----------
simSeconds                                  28.629074                       # Number of seconds simulated (Second)
simTicks                                 28629073738067                       # Number of ticks simulated (Tick)
finalTick                                28629073738067                       # Number of ticks from beginning of simulation (restored from checkpoints and never reset) (Tick)
simFreq                                  1000000000000                       # The number of ticks per simulated second ((Tick/Second))
hostSeconds                                 111905.01                       # Real time elapsed on the host (Second)
hostTickRate                                255833701                       # The number of ticks simulated per host second (ticks/s) ((Tick/Second))
hostMemory                                   31349968                       # Number of bytes of host memory used (Byte)
simInsts                                  39411978044                       # Number of instructions simulated (Count)
simOps                                    65679071898                       # Number of ops (including micro ops) simulated (Count)
hostInstRate                                   352191                       # Simulator instruction rate (inst/s) ((Count/Second))
hostOpRate                                     586918                       # Simulator op (including micro ops) rate (op/s) ((Count/Second))
system.clk_domain.clock                          2500                       # Clock period in ticks (Tick)
system.cpu.numCycles                      91466689260                       # Number of cpu cycles simulated (Cycle)
system.cpu.cpi                               2.320784                       # CPI: cycles per instruction (core level) ((Cycle/Count))
system.cpu.ipc                               0.430889                       # IPC: instructions per cycle (core level) ((Count/Cycle))
system.cpu.numWorkItemsStarted                      0                       # Number of work items this cpu started (Count)
system.cpu.numWorkItemsCompleted                    0                       # Number of work items this cpu completed (Count)
system.cpu.instsAdded                     65754100157                       # Number of instructions added to the IQ (excludes non-spec) (Count)
system.cpu.nonSpecInstsAdded                     1454                       # Number of non-speculative instructions added to the IQ (Count)
system.cpu.instsIssued                    65735451209                       # Number of instructions issued (Count)
system.cpu.squashedInstsIssued                  20747                       # Number of squashed instructions issued (Count)
system.cpu.squashedInstsExamined             75029707                       # Number of squashed instructions iterated over during squash; mainly for profiling (Count)
system.cpu.squashedOperandsExamined          88769028                       # Number of squashed operands that are examined and possibly removed from graph (Count)
system.cpu.squashedNonSpecRemoved                 623                       # Number of squashed non-spec instructions that were removed (Count)
system.cpu.numIssuedDist::samples         91434401792                       # Number of insts issued each cycle (Count)
system.cpu.numIssuedDist::mean               0.718936                       # Number of insts issued each cycle (Count)
system.cpu.numIssuedDist::stdev              1.520808                       # Number of insts issued each cycle (Count)
system.cpu.numIssuedDist::underflows                0      0.00%      0.00% # Number of insts issued each cycle (Count)
system.cpu.numIssuedDist::0               68417213204     74.83%     74.83% # Number of insts issued each cycle (Count)
system.cpu.numIssuedDist::1                6918738705      7.57%     82.39% # Number of insts issued each cycle (Count)
system.cpu.numIssuedDist::2                4669291925      5.11%     87.50% # Number of insts issued each cycle (Count)
system.cpu.numIssuedDist::3                3836878377      4.20%     91.70% # Number of insts issued each cycle (Count)
system.cpu.numIssuedDist::4                3237050957      3.54%     95.24% # Number of insts issued each cycle (Count)
system.cpu.numIssuedDist::5                2093513924      2.29%     97.53% # Number of insts issued each cycle (Count)
system.cpu.numIssuedDist::6                1427947821      1.56%     99.09% # Number of insts issued each cycle (Count)
system.cpu.numIssuedDist::7                 686101883      0.75%     99.84% # Number of insts issued each cycle (Count)
system.cpu.numIssuedDist::8                 147664996      0.16%    100.00% # Number of insts issued each cycle (Count)
system.cpu.numIssuedDist::overflows                 0      0.00%    100.00% # Number of insts issued each cycle (Count)
system.cpu.numIssuedDist::min_value                 0                       # Number of insts issued each cycle (Count)
system.cpu.numIssuedDist::max_value                 8                       # Number of insts issued each cycle (Count)
system.cpu.numIssuedDist::total           91434401792                       # Number of insts issued each cycle (Count)
system.cpu.statFuBusy::No_OpClass                   0      0.00%      0.00% # attempts to use FU when none available (Count)
system.cpu.statFuBusy::IntAlu                23036659      5.04%      5.04% # attempts to use FU when none available (Count)
system.cpu.statFuBusy::IntMult                      0      0.00%      5.04% # attempts to use FU when none available (Count)
system.cpu.statFuBusy::IntDiv                       0      0.00%      5.04% # attempts to use FU when none available (Count)
system.cpu.statFuBusy::FloatAdd                     0      0.00%      5.04% # attempts to use FU when none available (Count)
system.cpu.statFuBusy::FloatCmp                     0      0.00%      5.04% # attempts to use FU when none available (Count)
system.cpu.statFuBusy::FloatCvt                     3      0.00%      5.04% # attempts to use FU when none available (Count)
system.cpu.statFuBusy::FloatMult                    0      0.00%      5.04% # attempts to use FU when none available (Count)
system.cpu.statFuBusy::FloatMultAcc                 0      0.00%      5.04% # attempts to use FU when none available (Count)
system.cpu.statFuBusy::FloatDiv                     0      0.00%      5.04% # attempts to use FU when none available (Count)
system.cpu.statFuBusy::FloatMisc                    0      0.00%      5.04% # attempts to use FU when none available (Count)
system.cpu.statFuBusy::FloatSqrt                    0      0.00%      5.04% # attempts to use FU when none available (Count)
system.cpu.statFuBusy::SimdAdd                      1      0.00%      5.04% # attempts to use FU when none available (Count)
system.cpu.statFuBusy::SimdAddAcc                   0      0.00%      5.04% # attempts to use FU when none available (Count)
system.cpu.statFuBusy::SimdAlu                    250      0.00%      5.04% # attempts to use FU when none available (Count)
system.cpu.statFuBusy::SimdCmp                      1      0.00%      5.04% # attempts to use FU when none available (Count)
system.cpu.statFuBusy::SimdCvt                     98      0.00%      5.04% # attempts to use FU when none available (Count)
system.cpu.statFuBusy::SimdMisc                    36      0.00%      5.04% # attempts to use FU when none available (Count)
system.cpu.statFuBusy::SimdMult                     0      0.00%      5.04% # attempts to use FU when none available (Count)
system.cpu.statFuBusy::SimdMultAcc                  0      0.00%      5.04% # attempts to use FU when none available (Count)
system.cpu.statFuBusy::SimdMatMultAcc               0      0.00%      5.04% # attempts to use FU when none available (Count)
system.cpu.statFuBusy::SimdShift                   49      0.00%      5.04% # attempts to use FU when none available (Count)
system.cpu.statFuBusy::SimdShiftAcc                 0      0.00%      5.04% # attempts to use FU when none available (Count)
system.cpu.statFuBusy::SimdDiv                      0      0.00%      5.04% # attempts to use FU when none available (Count)
system.cpu.statFuBusy::SimdSqrt                     0      0.00%      5.04% # attempts to use FU when none available (Count)
system.cpu.statFuBusy::SimdFloatAdd                 0      0.00%      5.04% # attempts to use FU when none available (Count)
system.cpu.statFuBusy::SimdFloatAlu                 0      0.00%      5.04% # attempts to use FU when none available (Count)
system.cpu.statFuBusy::SimdFloatCmp                 0      0.00%      5.04% # attempts to use FU when none available (Count)
system.cpu.statFuBusy::SimdFloatCvt                 0      0.00%      5.04% # attempts to use FU when none available (Count)
system.cpu.statFuBusy::SimdFloatDiv                 0      0.00%      5.04% # attempts to use FU when none available (Count)
system.cpu.statFuBusy::SimdFloatMisc                0      0.00%      5.04% # attempts to use FU when none available (Count)
system.cpu.statFuBusy::SimdFloatMult                0      0.00%      5.04% # attempts to use FU when none available (Count)
system.cpu.statFuBusy::SimdFloatMultAcc             0      0.00%      5.04% # attempts to use FU when none available (Count)
system.cpu.statFuBusy::SimdFloatMatMultAcc            0      0.00%      5.04% # attempts to use FU when none available (Count)
system.cpu.statFuBusy::SimdFloatSqrt                0      0.00%      5.04% # attempts to use FU when none available (Count)
system.cpu.statFuBusy::SimdReduceAdd                0      0.00%      5.04% # attempts to use FU when none available (Count)
system.cpu.statFuBusy::SimdReduceAlu                0      0.00%      5.04% # attempts to use FU when none available (Count)
system.cpu.statFuBusy::SimdReduceCmp                0      0.00%      5.04% # attempts to use FU when none available (Count)
system.cpu.statFuBusy::SimdFloatReduceAdd            0      0.00%      5.04% # attempts to use FU when none available (Count)
system.cpu.statFuBusy::SimdFloatReduceCmp            0      0.00%      5.04% # attempts to use FU when none available (Count)
system.cpu.statFuBusy::SimdAes                      0      0.00%      5.04% # attempts to use FU when none available (Count)
system.cpu.statFuBusy::SimdAesMix                   0      0.00%      5.04% # attempts to use FU when none available (Count)
system.cpu.statFuBusy::SimdSha1Hash                 0      0.00%      5.04% # attempts to use FU when none available (Count)
system.cpu.statFuBusy::SimdSha1Hash2                0      0.00%      5.04% # attempts to use FU when none available (Count)
system.cpu.statFuBusy::SimdSha256Hash               0      0.00%      5.04% # attempts to use FU when none available (Count)
system.cpu.statFuBusy::SimdSha256Hash2              0      0.00%      5.04% # attempts to use FU when none available (Count)
system.cpu.statFuBusy::SimdShaSigma2                0      0.00%      5.04% # attempts to use FU when none available (Count)
system.cpu.statFuBusy::SimdShaSigma3                0      0.00%      5.04% # attempts to use FU when none available (Count)
system.cpu.statFuBusy::SimdPredAlu                  0      0.00%      5.04% # attempts to use FU when none available (Count)
system.cpu.statFuBusy::Matrix                       0      0.00%      5.04% # attempts to use FU when none available (Count)
system.cpu.statFuBusy::MatrixMov                    0      0.00%      5.04% # attempts to use FU when none available (Count)
system.cpu.statFuBusy::MatrixOP                     0      0.00%      5.04% # attempts to use FU when none available (Count)
system.cpu.statFuBusy::MemRead              319635344     69.93%     74.97% # attempts to use FU when none available (Count)
system.cpu.statFuBusy::MemWrite             110998378     24.29%     99.26% # attempts to use FU when none available (Count)
system.cpu.statFuBusy::FloatMemRead           3378857      0.74%    100.00% # attempts to use FU when none available (Count)
system.cpu.statFuBusy::FloatMemWrite             2962      0.00%    100.00% # attempts to use FU when none available (Count)
system.cpu.statFuBusy::IprAccess                    0      0.00%    100.00% # attempts to use FU when none available (Count)
system.cpu.statFuBusy::InstPrefetch                 0      0.00%    100.00% # attempts to use FU when none available (Count)
system.cpu.statFuBusy::SimdUnitStrideLoad            0      0.00%    100.00% # attempts to use FU when none available (Count)
system.cpu.statFuBusy::SimdUnitStrideStore            0      0.00%    100.00% # attempts to use FU when none available (Count)
system.cpu.statFuBusy::SimdUnitStrideMaskLoad            0      0.00%    100.00% # attempts to use FU when none available (Count)
system.cpu.statFuBusy::SimdUnitStrideMaskStore            0      0.00%    100.00% # attempts to use FU when none available (Count)
system.cpu.statFuBusy::SimdStridedLoad              0      0.00%    100.00% # attempts to use FU when none available (Count)
system.cpu.statFuBusy::SimdStridedStore             0      0.00%    100.00% # attempts to use FU when none available (Count)
system.cpu.statFuBusy::SimdIndexedLoad              0      0.00%    100.00% # attempts to use FU when none available (Count)
system.cpu.statFuBusy::SimdIndexedStore             0      0.00%    100.00% # attempts to use FU when none available (Count)
system.cpu.statFuBusy::SimdWholeRegisterLoad            0      0.00%    100.00% # attempts to use FU when none available (Count)
system.cpu.statFuBusy::SimdWholeRegisterStore            0      0.00%    100.00% # attempts to use FU when none available (Count)
system.cpu.statFuBusy::SimdUnitStrideFaultOnlyFirstLoad            0      0.00%    100.00% # attempts to use FU when none available (Count)
system.cpu.statFuBusy::SimdUnitStrideSegmentedLoad            0      0.00%    100.00% # attempts to use FU when none available (Count)
system.cpu.statFuBusy::SimdUnitStrideSegmentedStore            0      0.00%    100.00% # attempts to use FU when none available (Count)
system.cpu.statFuBusy::SimdExt                      0      0.00%    100.00% # attempts to use FU when none available (Count)
system.cpu.statFuBusy::SimdFloatExt                 0      0.00%    100.00% # attempts to use FU when none available (Count)
system.cpu.statFuBusy::SimdConfig                   0      0.00%    100.00% # attempts to use FU when none available (Count)
system.cpu.statIssuedInstType_0::No_OpClass     17621621      0.03%      0.03% # Number of instructions issued per FU type, per thread (Count)
system.cpu.statIssuedInstType_0::IntAlu   38512260467     58.59%     58.61% # Number of instructions issued per FU type, per thread (Count)
system.cpu.statIssuedInstType_0::IntMult    224562880      0.34%     58.96% # Number of instructions issued per FU type, per thread (Count)
system.cpu.statIssuedInstType_0::IntDiv          5113      0.00%     58.96% # Number of instructions issued per FU type, per thread (Count)
system.cpu.statIssuedInstType_0::FloatAdd   1293459941      1.97%     60.92% # Number of instructions issued per FU type, per thread (Count)
system.cpu.statIssuedInstType_0::FloatCmp            0      0.00%     60.92% # Number of instructions issued per FU type, per thread (Count)
system.cpu.statIssuedInstType_0::FloatCvt          614      0.00%     60.92% # Number of instructions issued per FU type, per thread (Count)
system.cpu.statIssuedInstType_0::FloatMult            0      0.00%     60.92% # Number of instructions issued per FU type, per thread (Count)
system.cpu.statIssuedInstType_0::FloatMultAcc            0      0.00%     60.92% # Number of instructions issued per FU type, per thread (Count)
system.cpu.statIssuedInstType_0::FloatDiv            0      0.00%     60.92% # Number of instructions issued per FU type, per thread (Count)
system.cpu.statIssuedInstType_0::FloatMisc            0      0.00%     60.92% # Number of instructions issued per FU type, per thread (Count)
system.cpu.statIssuedInstType_0::FloatSqrt            0      0.00%     60.92% # Number of instructions issued per FU type, per thread (Count)
system.cpu.statIssuedInstType_0::SimdAdd         2522      0.00%     60.92% # Number of instructions issued per FU type, per thread (Count)
system.cpu.statIssuedInstType_0::SimdAddAcc            0      0.00%     60.92% # Number of instructions issued per FU type, per thread (Count)
system.cpu.statIssuedInstType_0::SimdAlu    436655267      0.66%     61.59% # Number of instructions issued per FU type, per thread (Count)
system.cpu.statIssuedInstType_0::SimdCmp           23      0.00%     61.59% # Number of instructions issued per FU type, per thread (Count)
system.cpu.statIssuedInstType_0::SimdCvt         7475      0.00%     61.59% # Number of instructions issued per FU type, per thread (Count)
system.cpu.statIssuedInstType_0::SimdMisc    431331898      0.66%     62.24% # Number of instructions issued per FU type, per thread (Count)
system.cpu.statIssuedInstType_0::SimdMult            0      0.00%     62.24% # Number of instructions issued per FU type, per thread (Count)
system.cpu.statIssuedInstType_0::SimdMultAcc            0      0.00%     62.24% # Number of instructions issued per FU type, per thread (Count)
system.cpu.statIssuedInstType_0::SimdMatMultAcc            0      0.00%     62.24% # Number of instructions issued per FU type, per thread (Count)
system.cpu.statIssuedInstType_0::SimdShift         2498      0.00%     62.24% # Number of instructions issued per FU type, per thread (Count)
system.cpu.statIssuedInstType_0::SimdShiftAcc            0      0.00%     62.24% # Number of instructions issued per FU type, per thread (Count)
system.cpu.statIssuedInstType_0::SimdDiv            0      0.00%     62.24% # Number of instructions issued per FU type, per thread (Count)
system.cpu.statIssuedInstType_0::SimdSqrt            0      0.00%     62.24% # Number of instructions issued per FU type, per thread (Count)
system.cpu.statIssuedInstType_0::SimdFloatAdd    217685610      0.33%     62.57% # Number of instructions issued per FU type, per thread (Count)
system.cpu.statIssuedInstType_0::SimdFloatAlu            0      0.00%     62.57% # Number of instructions issued per FU type, per thread (Count)
system.cpu.statIssuedInstType_0::SimdFloatCmp            0      0.00%     62.57% # Number of instructions issued per FU type, per thread (Count)
system.cpu.statIssuedInstType_0::SimdFloatCvt    644331826      0.98%     63.55% # Number of instructions issued per FU type, per thread (Count)
system.cpu.statIssuedInstType_0::SimdFloatDiv      4758500      0.01%     63.56% # Number of instructions issued per FU type, per thread (Count)
system.cpu.statIssuedInstType_0::SimdFloatMisc            0      0.00%     63.56% # Number of instructions issued per FU type, per thread (Count)
system.cpu.statIssuedInstType_0::SimdFloatMult    212927885      0.32%     63.89% # Number of instructions issued per FU type, per thread (Count)
system.cpu.statIssuedInstType_0::SimdFloatMultAcc            0      0.00%     63.89% # Number of instructions issued per FU type, per thread (Count)
system.cpu.statIssuedInstType_0::SimdFloatMatMultAcc            0      0.00%     63.89% # Number of instructions issued per FU type, per thread (Count)
system.cpu.statIssuedInstType_0::SimdFloatSqrt            0      0.00%     63.89% # Number of instructions issued per FU type, per thread (Count)
system.cpu.statIssuedInstType_0::SimdReduceAdd            0      0.00%     63.89% # Number of instructions issued per FU type, per thread (Count)
system.cpu.statIssuedInstType_0::SimdReduceAlu            0      0.00%     63.89% # Number of instructions issued per FU type, per thread (Count)
system.cpu.statIssuedInstType_0::SimdReduceCmp            0      0.00%     63.89% # Number of instructions issued per FU type, per thread (Count)
system.cpu.statIssuedInstType_0::SimdFloatReduceAdd            0      0.00%     63.89% # Number of instructions issued per FU type, per thread (Count)
system.cpu.statIssuedInstType_0::SimdFloatReduceCmp            0      0.00%     63.89% # Number of instructions issued per FU type, per thread (Count)
system.cpu.statIssuedInstType_0::SimdAes            0      0.00%     63.89% # Number of instructions issued per FU type, per thread (Count)
system.cpu.statIssuedInstType_0::SimdAesMix            0      0.00%     63.89% # Number of instructions issued per FU type, per thread (Count)
system.cpu.statIssuedInstType_0::SimdSha1Hash            0      0.00%     63.89% # Number of instructions issued per FU type, per thread (Count)
system.cpu.statIssuedInstType_0::SimdSha1Hash2            0      0.00%     63.89% # Number of instructions issued per FU type, per thread (Count)
system.cpu.statIssuedInstType_0::SimdSha256Hash            0      0.00%     63.89% # Number of instructions issued per FU type, per thread (Count)
system.cpu.statIssuedInstType_0::SimdSha256Hash2            0      0.00%     63.89% # Number of instructions issued per FU type, per thread (Count)
system.cpu.statIssuedInstType_0::SimdShaSigma2            0      0.00%     63.89% # Number of instructions issued per FU type, per thread (Count)
system.cpu.statIssuedInstType_0::SimdShaSigma3            0      0.00%     63.89% # Number of instructions issued per FU type, per thread (Count)
system.cpu.statIssuedInstType_0::SimdPredAlu            0      0.00%     63.89% # Number of instructions issued per FU type, per thread (Count)
system.cpu.statIssuedInstType_0::Matrix             0      0.00%     63.89% # Number of instructions issued per FU type, per thread (Count)
system.cpu.statIssuedInstType_0::MatrixMov            0      0.00%     63.89% # Number of instructions issued per FU type, per thread (Count)
system.cpu.statIssuedInstType_0::MatrixOP            0      0.00%     63.89% # Number of instructions issued per FU type, per thread (Count)
system.cpu.statIssuedInstType_0::MemRead  13370762538     20.34%     84.23% # Number of instructions issued per FU type, per thread (Count)
system.cpu.statIssuedInstType_0::MemWrite   8358888049     12.72%     96.94% # Number of instructions issued per FU type, per thread (Count)
system.cpu.statIssuedInstType_0::FloatMemRead   1539872059      2.34%     99.28% # Number of instructions issued per FU type, per thread (Count)
system.cpu.statIssuedInstType_0::FloatMemWrite    470314423      0.72%    100.00% # Number of instructions issued per FU type, per thread (Count)
system.cpu.statIssuedInstType_0::IprAccess            0      0.00%    100.00% # Number of instructions issued per FU type, per thread (Count)
system.cpu.statIssuedInstType_0::InstPrefetch            0      0.00%    100.00% # Number of instructions issued per FU type, per thread (Count)
system.cpu.statIssuedInstType_0::SimdUnitStrideLoad            0      0.00%    100.00% # Number of instructions issued per FU type, per thread (Count)
system.cpu.statIssuedInstType_0::SimdUnitStrideStore            0      0.00%    100.00% # Number of instructions issued per FU type, per thread (Count)
system.cpu.statIssuedInstType_0::SimdUnitStrideMaskLoad            0      0.00%    100.00% # Number of instructions issued per FU type, per thread (Count)
system.cpu.statIssuedInstType_0::SimdUnitStrideMaskStore            0      0.00%    100.00% # Number of instructions issued per FU type, per thread (Count)
system.cpu.statIssuedInstType_0::SimdStridedLoad            0      0.00%    100.00% # Number of instructions issued per FU type, per thread (Count)
system.cpu.statIssuedInstType_0::SimdStridedStore            0      0.00%    100.00% # Number of instructions issued per FU type, per thread (Count)
system.cpu.statIssuedInstType_0::SimdIndexedLoad            0      0.00%    100.00% # Number of instructions issued per FU type, per thread (Count)
system.cpu.statIssuedInstType_0::SimdIndexedStore            0      0.00%    100.00% # Number of instructions issued per FU type, per thread (Count)
system.cpu.statIssuedInstType_0::SimdWholeRegisterLoad            0      0.00%    100.00% # Number of instructions issued per FU type, per thread (Count)
system.cpu.statIssuedInstType_0::SimdWholeRegisterStore            0      0.00%    100.00% # Number of instructions issued per FU type, per thread (Count)
system.cpu.statIssuedInstType_0::SimdUnitStrideFaultOnlyFirstLoad            0      0.00%    100.00% # Number of instructions issued per FU type, per thread (Count)
system.cpu.statIssuedInstType_0::SimdUnitStrideSegmentedLoad            0      0.00%    100.00% # Number of instructions issued per FU type, per thread (Count)
system.cpu.statIssuedInstType_0::SimdUnitStrideSegmentedStore            0      0.00%    100.00% # Number of instructions issued per FU type, per thread (Count)
system.cpu.statIssuedInstType_0::SimdExt            0      0.00%    100.00% # Number of instructions issued per FU type, per thread (Count)
system.cpu.statIssuedInstType_0::SimdFloatExt            0      0.00%    100.00% # Number of instructions issued per FU type, per thread (Count)
system.cpu.statIssuedInstType_0::SimdConfig            0      0.00%    100.00% # Number of instructions issued per FU type, per thread (Count)
system.cpu.statIssuedInstType_0::total    65735451209                       # Number of instructions issued per FU type, per thread (Count)
system.cpu.issueRate                         0.718682                       # Inst issue rate ((Count/Cycle))
system.cpu.fuBusy                           457052638                       # FU busy when requested (Count)
system.cpu.fuBusyRate                        0.006953                       # FU busy rate (busy events/executed inst) ((Count/Count))
system.cpu.intInstQueueReads             212856291361                       # Number of integer instruction queue reads (Count)
system.cpu.intInstQueueWrites             60575268026                       # Number of integer instruction queue writes (Count)
system.cpu.intInstQueueWakeupAccesses     60477411578                       # Number of integer instruction queue wakeup accesses (Count)
system.cpu.fpInstQueueReads               10506086234                       # Number of floating instruction queue reads (Count)
system.cpu.fpInstQueueWrites               5255019400                       # Number of floating instruction queue writes (Count)
system.cpu.fpInstQueueWakeupAccesses       5250945727                       # Number of floating instruction queue wakeup accesses (Count)
system.cpu.vecInstQueueReads                        0                       # Number of vector instruction queue reads (Count)
system.cpu.vecInstQueueWrites                       0                       # Number of vector instruction queue writes (Count)
system.cpu.vecInstQueueWakeupAccesses               0                       # Number of vector instruction queue wakeup accesses (Count)
system.cpu.intAluAccesses                 60920148188                       # Number of integer alu accesses (Count)
system.cpu.fpAluAccesses                   5254734038                       # Number of floating point alu accesses (Count)
system.cpu.vecAluAccesses                           0                       # Number of vector alu accesses (Count)
system.cpu.numSquashedInsts                   6001499                       # Number of squashed instructions skipped in execute (Count)
system.cpu.numSwp                                   0                       # Number of swp insts executed (Count)
system.cpu.timesIdled                            5723                       # Number of times that the entire CPU went into an idle state and unscheduled itself (Count)
system.cpu.idleCycles                        32287468                       # Total number of cycles that the CPU has spent unscheduled due to idling (Cycle)
system.cpu.MemDepUnit__0.insertedLoads    14915240585                       # Number of loads inserted to the mem dependence unit. (Count)
system.cpu.MemDepUnit__0.insertedStores    8830991513                       # Number of stores inserted to the mem dependence unit. (Count)
system.cpu.MemDepUnit__0.conflictingLoads   7260885838                       # Number of conflicting loads. (Count)
system.cpu.MemDepUnit__0.conflictingStores   2108967247                       # Number of conflicting stores. (Count)
system.cpu.MemDepUnit__1.insertedLoads              0                       # Number of loads inserted to the mem dependence unit. (Count)
system.cpu.MemDepUnit__1.insertedStores             0                       # Number of stores inserted to the mem dependence unit. (Count)
system.cpu.MemDepUnit__1.conflictingLoads            0                       # Number of conflicting loads. (Count)
system.cpu.MemDepUnit__1.conflictingStores            0                       # Number of conflicting stores. (Count)
system.cpu.MemDepUnit__2.insertedLoads              0                       # Number of loads inserted to the mem dependence unit. (Count)
system.cpu.MemDepUnit__2.insertedStores             0                       # Number of stores inserted to the mem dependence unit. (Count)
system.cpu.MemDepUnit__2.conflictingLoads            0                       # Number of conflicting loads. (Count)
system.cpu.MemDepUnit__2.conflictingStores            0                       # Number of conflicting stores. (Count)
system.cpu.MemDepUnit__3.insertedLoads              0                       # Number of loads inserted to the mem dependence unit. (Count)
system.cpu.MemDepUnit__3.insertedStores             0                       # Number of stores inserted to the mem dependence unit. (Count)
system.cpu.MemDepUnit__3.conflictingLoads            0                       # Number of conflicting loads. (Count)
system.cpu.MemDepUnit__3.conflictingStores            0                       # Number of conflicting stores. (Count)
system.cpu.branchPred.lookups_0::NoBranch         1536      0.00%      0.00% # Number of BP lookups (Count)
system.cpu.branchPred.lookups_0::Return    1979070343     40.15%     40.15% # Number of BP lookups (Count)
system.cpu.branchPred.lookups_0::CallDirect   1978504278     40.13%     80.28% # Number of BP lookups (Count)
system.cpu.branchPred.lookups_0::CallIndirect         4659      0.00%     80.28% # Number of BP lookups (Count)
system.cpu.branchPred.lookups_0::DirectCond    959682895     19.47%     99.75% # Number of BP lookups (Count)
system.cpu.branchPred.lookups_0::DirectUncond      6084830      0.12%     99.87% # Number of BP lookups (Count)
system.cpu.branchPred.lookups_0::IndirectCond            0      0.00%     99.87% # Number of BP lookups (Count)
system.cpu.branchPred.lookups_0::IndirectUncond      6446662      0.13%    100.00% # Number of BP lookups (Count)
system.cpu.branchPred.lookups_0::total     4929795203                       # Number of BP lookups (Count)
system.cpu.branchPred.squashes_0::NoBranch         1318      0.01%      0.01% # Number of branches that got squashed (completely removed) as an earlier branch was mispredicted. (Count)
system.cpu.branchPred.squashes_0::Return      3983149     39.15%     39.16% # Number of branches that got squashed (completely removed) as an earlier branch was mispredicted. (Count)
system.cpu.branchPred.squashes_0::CallDirect      3420403     33.62%     72.78% # Number of branches that got squashed (completely removed) as an earlier branch was mispredicted. (Count)
system.cpu.branchPred.squashes_0::CallIndirect         1336      0.01%     72.79% # Number of branches that got squashed (completely removed) as an earlier branch was mispredicted. (Count)
system.cpu.branchPred.squashes_0::DirectCond      2525413     24.82%     97.62% # Number of branches that got squashed (completely removed) as an earlier branch was mispredicted. (Count)
system.cpu.branchPred.squashes_0::DirectUncond       218698      2.15%     99.76% # Number of branches that got squashed (completely removed) as an earlier branch was mispredicted. (Count)
system.cpu.branchPred.squashes_0::IndirectCond            0      0.00%     99.76% # Number of branches that got squashed (completely removed) as an earlier branch was mispredicted. (Count)
system.cpu.branchPred.squashes_0::IndirectUncond        23952      0.24%    100.00% # Number of branches that got squashed (completely removed) as an earlier branch was mispredicted. (Count)
system.cpu.branchPred.squashes_0::total      10174269                       # Number of branches that got squashed (completely removed) as an earlier branch was mispredicted. (Count)
system.cpu.branchPred.corrected_0::NoBranch          417      0.04%      0.04% # Number of branches that got corrected but not yet commited. Branches get corrected by decode or after execute. Also a branch misprediction can be detected out-of-order. Therefore, a corrected branch might not end up beeing committed in case an even earlier branch was mispredicted (Count)
system.cpu.branchPred.corrected_0::Return          455      0.05%      0.09% # Number of branches that got corrected but not yet commited. Branches get corrected by decode or after execute. Also a branch misprediction can be detected out-of-order. Therefore, a corrected branch might not end up beeing committed in case an even earlier branch was mispredicted (Count)
system.cpu.branchPred.corrected_0::CallDirect         3397      0.36%      0.46% # Number of branches that got corrected but not yet commited. Branches get corrected by decode or after execute. Also a branch misprediction can be detected out-of-order. Therefore, a corrected branch might not end up beeing committed in case an even earlier branch was mispredicted (Count)
system.cpu.branchPred.corrected_0::CallIndirect          304      0.03%      0.49% # Number of branches that got corrected but not yet commited. Branches get corrected by decode or after execute. Also a branch misprediction can be detected out-of-order. Therefore, a corrected branch might not end up beeing committed in case an even earlier branch was mispredicted (Count)
system.cpu.branchPred.corrected_0::DirectCond       931215     99.29%     99.78% # Number of branches that got corrected but not yet commited. Branches get corrected by decode or after execute. Also a branch misprediction can be detected out-of-order. Therefore, a corrected branch might not end up beeing committed in case an even earlier branch was mispredicted (Count)
system.cpu.branchPred.corrected_0::DirectUncond         1313      0.14%     99.92% # Number of branches that got corrected but not yet commited. Branches get corrected by decode or after execute. Also a branch misprediction can be detected out-of-order. Therefore, a corrected branch might not end up beeing committed in case an even earlier branch was mispredicted (Count)
system.cpu.branchPred.corrected_0::IndirectCond            0      0.00%     99.92% # Number of branches that got corrected but not yet commited. Branches get corrected by decode or after execute. Also a branch misprediction can be detected out-of-order. Therefore, a corrected branch might not end up beeing committed in case an even earlier branch was mispredicted (Count)
system.cpu.branchPred.corrected_0::IndirectUncond          766      0.08%    100.00% # Number of branches that got corrected but not yet commited. Branches get corrected by decode or after execute. Also a branch misprediction can be detected out-of-order. Therefore, a corrected branch might not end up beeing committed in case an even earlier branch was mispredicted (Count)
system.cpu.branchPred.corrected_0::total       937867                       # Number of branches that got corrected but not yet commited. Branches get corrected by decode or after execute. Also a branch misprediction can be detected out-of-order. Therefore, a corrected branch might not end up beeing committed in case an even earlier branch was mispredicted (Count)
system.cpu.branchPred.earlyResteers_0::NoBranch            0                       # Number of branches that got redirected after decode. (Count)
system.cpu.branchPred.earlyResteers_0::Return            0                       # Number of branches that got redirected after decode. (Count)
system.cpu.branchPred.earlyResteers_0::CallDirect            0                       # Number of branches that got redirected after decode. (Count)
system.cpu.branchPred.earlyResteers_0::CallIndirect            0                       # Number of branches that got redirected after decode. (Count)
system.cpu.branchPred.earlyResteers_0::DirectCond            0                       # Number of branches that got redirected after decode. (Count)
system.cpu.branchPred.earlyResteers_0::DirectUncond            0                       # Number of branches that got redirected after decode. (Count)
system.cpu.branchPred.earlyResteers_0::IndirectCond            0                       # Number of branches that got redirected after decode. (Count)
system.cpu.branchPred.earlyResteers_0::IndirectUncond            0                       # Number of branches that got redirected after decode. (Count)
system.cpu.branchPred.earlyResteers_0::total            0                       # Number of branches that got redirected after decode. (Count)
system.cpu.branchPred.committed_0::NoBranch          218      0.00%      0.00% # Number of branches finally committed  (Count)
system.cpu.branchPred.committed_0::Return   1975087194     40.15%     40.15% # Number of branches finally committed  (Count)
system.cpu.branchPred.committed_0::CallDirect   1975083875     40.15%     80.29% # Number of branches finally committed  (Count)
system.cpu.branchPred.committed_0::CallIndirect         3323      0.00%     80.29% # Number of branches finally committed  (Count)
system.cpu.branchPred.committed_0::DirectCond    957157481     19.46%     99.75% # Number of branches finally committed  (Count)
system.cpu.branchPred.committed_0::DirectUncond      5866132      0.12%     99.87% # Number of branches finally committed  (Count)
system.cpu.branchPred.committed_0::IndirectCond            0      0.00%     99.87% # Number of branches finally committed  (Count)
system.cpu.branchPred.committed_0::IndirectUncond      6422710      0.13%    100.00% # Number of branches finally committed  (Count)
system.cpu.branchPred.committed_0::total   4919620933                       # Number of branches finally committed  (Count)
system.cpu.branchPred.mispredicted_0::NoBranch          218      0.02%      0.02% # Number of committed branches that were mispredicted. (Count)
system.cpu.branchPred.mispredicted_0::Return          428      0.05%      0.07% # Number of committed branches that were mispredicted. (Count)
system.cpu.branchPred.mispredicted_0::CallDirect         2429      0.26%      0.33% # Number of committed branches that were mispredicted. (Count)
system.cpu.branchPred.mispredicted_0::CallIndirect          267      0.03%      0.36% # Number of committed branches that were mispredicted. (Count)
system.cpu.branchPred.mispredicted_0::DirectCond       919382     99.49%     99.85% # Number of committed branches that were mispredicted. (Count)
system.cpu.branchPred.mispredicted_0::DirectUncond          707      0.08%     99.92% # Number of committed branches that were mispredicted. (Count)
system.cpu.branchPred.mispredicted_0::IndirectCond            0      0.00%     99.92% # Number of committed branches that were mispredicted. (Count)
system.cpu.branchPred.mispredicted_0::IndirectUncond          703      0.08%    100.00% # Number of committed branches that were mispredicted. (Count)
system.cpu.branchPred.mispredicted_0::total       924134                       # Number of committed branches that were mispredicted. (Count)
system.cpu.branchPred.targetProvider_0::NoTarget     54598577      1.11%      1.11% # The component providing the target for taken branches (Count)
system.cpu.branchPred.targetProvider_0::BTB   2889679133     58.62%     59.72% # The component providing the target for taken branches (Count)
system.cpu.branchPred.targetProvider_0::RAS   1979070339     40.15%     99.87% # The component providing the target for taken branches (Count)
system.cpu.branchPred.targetProvider_0::Indirect      6447154      0.13%    100.00% # The component providing the target for taken branches (Count)
system.cpu.branchPred.targetProvider_0::total   4929795203                       # The component providing the target for taken branches (Count)
system.cpu.branchPred.targetWrong_0::NoBranch       176817     18.87%     18.87% # Number of branches where the target was incorrect or not available at prediction time. (Count)
system.cpu.branchPred.targetWrong_0::Return       759532     81.07%     99.94% # Number of branches where the target was incorrect or not available at prediction time. (Count)
system.cpu.branchPred.targetWrong_0::CallDirect          455      0.05%     99.99% # Number of branches where the target was incorrect or not available at prediction time. (Count)
system.cpu.branchPred.targetWrong_0::CallIndirect           89      0.01%    100.00% # Number of branches where the target was incorrect or not available at prediction time. (Count)
system.cpu.branchPred.targetWrong_0::DirectCond            0      0.00%    100.00% # Number of branches where the target was incorrect or not available at prediction time. (Count)
system.cpu.branchPred.targetWrong_0::DirectUncond            0      0.00%    100.00% # Number of branches where the target was incorrect or not available at prediction time. (Count)
system.cpu.branchPred.targetWrong_0::IndirectCond            0      0.00%    100.00% # Number of branches where the target was incorrect or not available at prediction time. (Count)
system.cpu.branchPred.targetWrong_0::IndirectUncond            0      0.00%    100.00% # Number of branches where the target was incorrect or not available at prediction time. (Count)
system.cpu.branchPred.targetWrong_0::total       936893                       # Number of branches where the target was incorrect or not available at prediction time. (Count)
system.cpu.branchPred.condPredicted         959684431                       # Number of conditional branches predicted (Count)
system.cpu.branchPred.condPredictedTaken    905101237                       # Number of conditional branches predicted as taken (Count)
system.cpu.branchPred.condIncorrect            937867                       # Number of conditional branches incorrect (Count)
system.cpu.branchPred.predTakenBTBMiss           5842                       # Number of branches predicted taken but missed in BTB (Count)
system.cpu.branchPred.NotTakenMispredicted       178589                       # Number branches predicted 'not taken' but turned out to be taken (Count)
system.cpu.branchPred.TakenMispredicted        759278                       # Number branches predicted taken but are actually not taken (Count)
system.cpu.branchPred.BTBLookups           4929795203                       # Number of BTB lookups (Count)
system.cpu.branchPred.BTBUpdates               176647                       # Number of BTB updates (Count)
system.cpu.branchPred.BTBHits              2902244242                       # Number of BTB hits (Count)
system.cpu.branchPred.BTBHitRatio            0.588715                       # BTB Hit Ratio (Ratio)
system.cpu.branchPred.BTBMispredicted            7018                       # Number BTB mispredictions. No target found or target wrong (Count)
system.cpu.branchPred.indirectLookups         6451321                       # Number of indirect predictor lookups. (Count)
system.cpu.branchPred.indirectHits            6447154                       # Number of indirect target hits. (Count)
system.cpu.branchPred.indirectMisses             4167                       # Number of indirect misses. (Count)
system.cpu.branchPred.indirectMispredicted            0                       # Number of mispredicted indirect branches. (Count)
system.cpu.branchPred.btb.lookups::NoBranch         1536      0.00%      0.00% # Number of BTB lookups (Count)
system.cpu.branchPred.btb.lookups::Return   1979070343     40.15%     40.15% # Number of BTB lookups (Count)
system.cpu.branchPred.btb.lookups::CallDirect   1978504278     40.13%     80.28% # Number of BTB lookups (Count)
system.cpu.branchPred.btb.lookups::CallIndirect         4659      0.00%     80.28% # Number of BTB lookups (Count)
system.cpu.branchPred.btb.lookups::DirectCond    959682895     19.47%     99.75% # Number of BTB lookups (Count)
system.cpu.branchPred.btb.lookups::DirectUncond      6084830      0.12%     99.87% # Number of BTB lookups (Count)
system.cpu.branchPred.btb.lookups::IndirectCond            0      0.00%     99.87% # Number of BTB lookups (Count)
system.cpu.branchPred.btb.lookups::IndirectUncond      6446662      0.13%    100.00% # Number of BTB lookups (Count)
system.cpu.branchPred.btb.lookups::total   4929795203                       # Number of BTB lookups (Count)
system.cpu.branchPred.btb.misses::NoBranch          260      0.00%      0.00% # Number of BTB misses (Count)
system.cpu.branchPred.btb.misses::Return   1979070221     97.61%     97.61% # Number of BTB misses (Count)
system.cpu.branchPred.btb.misses::CallDirect         4506      0.00%     97.61% # Number of BTB misses (Count)
system.cpu.branchPred.btb.misses::CallIndirect         4655      0.00%     97.61% # Number of BTB misses (Count)
system.cpu.branchPred.btb.misses::DirectCond     42023086      2.07%     99.68% # Number of BTB misses (Count)
system.cpu.branchPred.btb.misses::DirectUncond         1571      0.00%     99.68% # Number of BTB misses (Count)
system.cpu.branchPred.btb.misses::IndirectCond            0      0.00%     99.68% # Number of BTB misses (Count)
system.cpu.branchPred.btb.misses::IndirectUncond      6446662      0.32%    100.00% # Number of BTB misses (Count)
system.cpu.branchPred.btb.misses::total    2027550961                       # Number of BTB misses (Count)
system.cpu.branchPred.btb.updates::NoBranch            0      0.00%      0.00% # Number of BTB updates (Count)
system.cpu.branchPred.btb.updates::Return            0      0.00%      0.00% # Number of BTB updates (Count)
system.cpu.branchPred.btb.updates::CallDirect         3397      1.92%      1.92% # Number of BTB updates (Count)
system.cpu.branchPred.btb.updates::CallIndirect            0      0.00%      1.92% # Number of BTB updates (Count)
system.cpu.branchPred.btb.updates::DirectCond       171937     97.33%     99.26% # Number of BTB updates (Count)
system.cpu.branchPred.btb.updates::DirectUncond         1313      0.74%    100.00% # Number of BTB updates (Count)
system.cpu.branchPred.btb.updates::IndirectCond            0      0.00%    100.00% # Number of BTB updates (Count)
system.cpu.branchPred.btb.updates::IndirectUncond            0      0.00%    100.00% # Number of BTB updates (Count)
system.cpu.branchPred.btb.updates::total       176647                       # Number of BTB updates (Count)
system.cpu.branchPred.btb.mispredict::NoBranch            0      0.00%      0.00% # Number of BTB mispredictions. No target found or target wrong. (Count)
system.cpu.branchPred.btb.mispredict::Return            0      0.00%      0.00% # Number of BTB mispredictions. No target found or target wrong. (Count)
system.cpu.branchPred.btb.mispredict::CallDirect         3397      1.92%      1.92% # Number of BTB mispredictions. No target found or target wrong. (Count)
system.cpu.branchPred.btb.mispredict::CallIndirect            0      0.00%      1.92% # Number of BTB mispredictions. No target found or target wrong. (Count)
system.cpu.branchPred.btb.mispredict::DirectCond       171937     97.33%     99.26% # Number of BTB mispredictions. No target found or target wrong. (Count)
system.cpu.branchPred.btb.mispredict::DirectUncond         1313      0.74%    100.00% # Number of BTB mispredictions. No target found or target wrong. (Count)
system.cpu.branchPred.btb.mispredict::IndirectCond            0      0.00%    100.00% # Number of BTB mispredictions. No target found or target wrong. (Count)
system.cpu.branchPred.btb.mispredict::IndirectUncond            0      0.00%    100.00% # Number of BTB mispredictions. No target found or target wrong. (Count)
system.cpu.branchPred.btb.mispredict::total       176647                       # Number of BTB mispredictions. No target found or target wrong. (Count)
system.cpu.branchPred.btb.power_state.pwrStateResidencyTicks::UNDEFINED 28629073738067                       # Cumulative time (in ticks) in various power states (Tick)
system.cpu.branchPred.indirectBranchPred.lookups      6451321                       # Number of lookups (Count)
system.cpu.branchPred.indirectBranchPred.hits      6447154                       # Number of hits of a tag (Count)
system.cpu.branchPred.indirectBranchPred.misses         4167                       # Number of misses (Count)
system.cpu.branchPred.indirectBranchPred.targetRecords         1070                       # Number of targets that where recorded/installed in the cache (Count)
system.cpu.branchPred.indirectBranchPred.indirectRecords      6452391                       # Number of indirect branches/calls recorded in the indirect hist (Count)
system.cpu.branchPred.indirectBranchPred.speculativeOverflows            1                       # Number of times more than the allowed capacity for speculative branches/calls where in flight and destroy the path history (Count)
system.cpu.branchPred.ras.pushes           1982492086                       # Number of times a PC was pushed onto the RAS (Count)
system.cpu.branchPred.ras.pops             1982492082                       # Number of times a PC was poped from the RAS (Count)
system.cpu.branchPred.ras.squashes            7404888                       # Number of times the stack operation was squashed due to wrong speculation. (Count)
system.cpu.branchPred.ras.used             1975087194                       # Number of times the RAS is the provider (Count)
system.cpu.branchPred.ras.correct          1975086766                       # Number of times the RAS is the provider and the prediction is correct (Count)
system.cpu.branchPred.ras.incorrect               428                       # Number of times the RAS is the provider and the prediction is wrong (Count)
system.cpu.commit.commitSquashedInsts        74847268                       # The number of squashed insts skipped by commit (Count)
system.cpu.commit.commitNonSpecStalls             831                       # The number of times commit has been forced to stall to communicate backwards (Count)
system.cpu.commit.branchMispredicts            935414                       # The number of times a branch was mispredicted (Count)
system.cpu.commit.numCommittedDist::samples  91423983219                       # Number of insts commited each cycle (Count)
system.cpu.commit.numCommittedDist::mean     0.718401                       # Number of insts commited each cycle (Count)
system.cpu.commit.numCommittedDist::stdev     2.015297                       # Number of insts commited each cycle (Count)
system.cpu.commit.numCommittedDist::underflows            0      0.00%      0.00% # Number of insts commited each cycle (Count)
system.cpu.commit.numCommittedDist::0     76039538428     83.17%     83.17% # Number of insts commited each cycle (Count)
system.cpu.commit.numCommittedDist::1      4964819316      5.43%     88.60% # Number of insts commited each cycle (Count)
system.cpu.commit.numCommittedDist::2      1355976459      1.48%     90.09% # Number of insts commited each cycle (Count)
system.cpu.commit.numCommittedDist::3      1814678818      1.98%     92.07% # Number of insts commited each cycle (Count)
system.cpu.commit.numCommittedDist::4       362391896      0.40%     92.47% # Number of insts commited each cycle (Count)
system.cpu.commit.numCommittedDist::5       665059590      0.73%     93.19% # Number of insts commited each cycle (Count)
system.cpu.commit.numCommittedDist::6       501936928      0.55%     93.74% # Number of insts commited each cycle (Count)
system.cpu.commit.numCommittedDist::7       984878164      1.08%     94.82% # Number of insts commited each cycle (Count)
system.cpu.commit.numCommittedDist::8      4734703620      5.18%    100.00% # Number of insts commited each cycle (Count)
system.cpu.commit.numCommittedDist::overflows            0      0.00%    100.00% # Number of insts commited each cycle (Count)
system.cpu.commit.numCommittedDist::min_value            0                       # Number of insts commited each cycle (Count)
system.cpu.commit.numCommittedDist::max_value            8                       # Number of insts commited each cycle (Count)
system.cpu.commit.numCommittedDist::total  91423983219                       # Number of insts commited each cycle (Count)
system.cpu.commit.amos                              0                       # Number of atomic instructions committed (Count)
system.cpu.commit.membars                         398                       # Number of memory barriers committed (Count)
system.cpu.commit.functionCalls            1975087198                       # Number of function calls committed. (Count)
system.cpu.commit.committedInstType_0::No_OpClass     17573968      0.03%      0.03% # Class of committed instruction (Count)
system.cpu.commit.committedInstType_0::IntAlu  38476004226     58.58%     58.61% # Class of committed instruction (Count)
system.cpu.commit.committedInstType_0::IntMult    224548230      0.34%     58.95% # Class of committed instruction (Count)
system.cpu.commit.committedInstType_0::IntDiv         4470      0.00%     58.95% # Class of committed instruction (Count)
system.cpu.commit.committedInstType_0::FloatAdd   1292918034      1.97%     60.92% # Class of committed instruction (Count)
system.cpu.commit.committedInstType_0::FloatCmp            0      0.00%     60.92% # Class of committed instruction (Count)
system.cpu.commit.committedInstType_0::FloatCvt          416      0.00%     60.92% # Class of committed instruction (Count)
system.cpu.commit.committedInstType_0::FloatMult            0      0.00%     60.92% # Class of committed instruction (Count)
system.cpu.commit.committedInstType_0::FloatMultAcc            0      0.00%     60.92% # Class of committed instruction (Count)
system.cpu.commit.committedInstType_0::FloatDiv            0      0.00%     60.92% # Class of committed instruction (Count)
system.cpu.commit.committedInstType_0::FloatMisc            0      0.00%     60.92% # Class of committed instruction (Count)
system.cpu.commit.committedInstType_0::FloatSqrt            0      0.00%     60.92% # Class of committed instruction (Count)
system.cpu.commit.committedInstType_0::SimdAdd         1920      0.00%     60.92% # Class of committed instruction (Count)
system.cpu.commit.committedInstType_0::SimdAddAcc            0      0.00%     60.92% # Class of committed instruction (Count)
system.cpu.commit.committedInstType_0::SimdAlu    436474272      0.66%     61.58% # Class of committed instruction (Count)
system.cpu.commit.committedInstType_0::SimdCmp           12      0.00%     61.58% # Class of committed instruction (Count)
system.cpu.commit.committedInstType_0::SimdCvt         5454      0.00%     61.58% # Class of committed instruction (Count)
system.cpu.commit.committedInstType_0::SimdMisc    431181549      0.66%     62.24% # Class of committed instruction (Count)
system.cpu.commit.committedInstType_0::SimdMult            0      0.00%     62.24% # Class of committed instruction (Count)
system.cpu.commit.committedInstType_0::SimdMultAcc            0      0.00%     62.24% # Class of committed instruction (Count)
system.cpu.commit.committedInstType_0::SimdMatMultAcc            0      0.00%     62.24% # Class of committed instruction (Count)
system.cpu.commit.committedInstType_0::SimdShift         1268      0.00%     62.24% # Class of committed instruction (Count)
system.cpu.commit.committedInstType_0::SimdShiftAcc            0      0.00%     62.24% # Class of committed instruction (Count)
system.cpu.commit.committedInstType_0::SimdDiv            0      0.00%     62.24% # Class of committed instruction (Count)
system.cpu.commit.committedInstType_0::SimdSqrt            0      0.00%     62.24% # Class of committed instruction (Count)
system.cpu.commit.committedInstType_0::SimdFloatAdd    217665792      0.33%     62.57% # Class of committed instruction (Count)
system.cpu.commit.committedInstType_0::SimdFloatAlu            0      0.00%     62.57% # Class of committed instruction (Count)
system.cpu.commit.committedInstType_0::SimdFloatCmp            0      0.00%     62.57% # Class of committed instruction (Count)
system.cpu.commit.committedInstType_0::SimdFloatCvt    644048356      0.98%     63.55% # Class of committed instruction (Count)
system.cpu.commit.committedInstType_0::SimdFloatDiv      4757376      0.01%     63.56% # Class of committed instruction (Count)
system.cpu.commit.committedInstType_0::SimdFloatMisc            0      0.00%     63.56% # Class of committed instruction (Count)
system.cpu.commit.committedInstType_0::SimdFloatMult    212906880      0.32%     63.88% # Class of committed instruction (Count)
system.cpu.commit.committedInstType_0::SimdFloatMultAcc            0      0.00%     63.88% # Class of committed instruction (Count)
system.cpu.commit.committedInstType_0::SimdFloatMatMultAcc            0      0.00%     63.88% # Class of committed instruction (Count)
system.cpu.commit.committedInstType_0::SimdFloatSqrt            0      0.00%     63.88% # Class of committed instruction (Count)
system.cpu.commit.committedInstType_0::SimdReduceAdd            0      0.00%     63.88% # Class of committed instruction (Count)
system.cpu.commit.committedInstType_0::SimdReduceAlu            0      0.00%     63.88% # Class of committed instruction (Count)
system.cpu.commit.committedInstType_0::SimdReduceCmp            0      0.00%     63.88% # Class of committed instruction (Count)
system.cpu.commit.committedInstType_0::SimdFloatReduceAdd            0      0.00%     63.88% # Class of committed instruction (Count)
system.cpu.commit.committedInstType_0::SimdFloatReduceCmp            0      0.00%     63.88% # Class of committed instruction (Count)
system.cpu.commit.committedInstType_0::SimdAes            0      0.00%     63.88% # Class of committed instruction (Count)
system.cpu.commit.committedInstType_0::SimdAesMix            0      0.00%     63.88% # Class of committed instruction (Count)
system.cpu.commit.committedInstType_0::SimdSha1Hash            0      0.00%     63.88% # Class of committed instruction (Count)
system.cpu.commit.committedInstType_0::SimdSha1Hash2            0      0.00%     63.88% # Class of committed instruction (Count)
system.cpu.commit.committedInstType_0::SimdSha256Hash            0      0.00%     63.88% # Class of committed instruction (Count)
system.cpu.commit.committedInstType_0::SimdSha256Hash2            0      0.00%     63.88% # Class of committed instruction (Count)
system.cpu.commit.committedInstType_0::SimdShaSigma2            0      0.00%     63.88% # Class of committed instruction (Count)
system.cpu.commit.committedInstType_0::SimdShaSigma3            0      0.00%     63.88% # Class of committed instruction (Count)
system.cpu.commit.committedInstType_0::SimdPredAlu            0      0.00%     63.88% # Class of committed instruction (Count)
system.cpu.commit.committedInstType_0::Matrix            0      0.00%     63.88% # Class of committed instruction (Count)
system.cpu.commit.committedInstType_0::MatrixMov            0      0.00%     63.88% # Class of committed instruction (Count)
system.cpu.commit.committedInstType_0::MatrixOP            0      0.00%     63.88% # Class of committed instruction (Count)
system.cpu.commit.committedInstType_0::MemRead  13359280569     20.34%     84.22% # Class of committed instruction (Count)
system.cpu.commit.committedInstType_0::MemWrite   8352507286     12.72%     96.94% # Class of committed instruction (Count)
system.cpu.commit.committedInstType_0::FloatMemRead   1538957891      2.34%     99.28% # Class of committed instruction (Count)
system.cpu.commit.committedInstType_0::FloatMemWrite    470233929      0.72%    100.00% # Class of committed instruction (Count)
system.cpu.commit.committedInstType_0::IprAccess            0      0.00%    100.00% # Class of committed instruction (Count)
system.cpu.commit.committedInstType_0::InstPrefetch            0      0.00%    100.00% # Class of committed instruction (Count)
system.cpu.commit.committedInstType_0::SimdUnitStrideLoad            0      0.00%    100.00% # Class of committed instruction (Count)
system.cpu.commit.committedInstType_0::SimdUnitStrideStore            0      0.00%    100.00% # Class of committed instruction (Count)
system.cpu.commit.committedInstType_0::SimdUnitStrideMaskLoad            0      0.00%    100.00% # Class of committed instruction (Count)
system.cpu.commit.committedInstType_0::SimdUnitStrideMaskStore            0      0.00%    100.00% # Class of committed instruction (Count)
system.cpu.commit.committedInstType_0::SimdStridedLoad            0      0.00%    100.00% # Class of committed instruction (Count)
system.cpu.commit.committedInstType_0::SimdStridedStore            0      0.00%    100.00% # Class of committed instruction (Count)
system.cpu.commit.committedInstType_0::SimdIndexedLoad            0      0.00%    100.00% # Class of committed instruction (Count)
system.cpu.commit.committedInstType_0::SimdIndexedStore            0      0.00%    100.00% # Class of committed instruction (Count)
system.cpu.commit.committedInstType_0::SimdWholeRegisterLoad            0      0.00%    100.00% # Class of committed instruction (Count)
system.cpu.commit.committedInstType_0::SimdWholeRegisterStore            0      0.00%    100.00% # Class of committed instruction (Count)
system.cpu.commit.committedInstType_0::SimdUnitStrideFaultOnlyFirstLoad            0      0.00%    100.00% # Class of committed instruction (Count)
system.cpu.commit.committedInstType_0::SimdUnitStrideSegmentedLoad            0      0.00%    100.00% # Class of committed instruction (Count)
system.cpu.commit.committedInstType_0::SimdUnitStrideSegmentedStore            0      0.00%    100.00% # Class of committed instruction (Count)
system.cpu.commit.committedInstType_0::SimdExt            0      0.00%    100.00% # Class of committed instruction (Count)
system.cpu.commit.committedInstType_0::SimdFloatExt            0      0.00%    100.00% # Class of committed instruction (Count)
system.cpu.commit.committedInstType_0::SimdConfig            0      0.00%    100.00% # Class of committed instruction (Count)
system.cpu.commit.committedInstType_0::total  65679071898                       # Class of committed instruction (Count)
system.cpu.commit.commitEligibleSamples    4734703620                       # number cycles where commit BW limit reached (Cycle)
system.cpu.commitStats0.numInsts          39411978044                       # Number of instructions committed (thread level) (Count)
system.cpu.commitStats0.numOps            65679071898                       # Number of ops (including micro ops) committed (thread level) (Count)
system.cpu.commitStats0.numInstsNotNOP    39411978044                       # Number of instructions committed excluding NOPs or prefetches (Count)
system.cpu.commitStats0.numOpsNotNOP      65679071898                       # Number of Ops (including micro ops) Simulated (Count)
system.cpu.commitStats0.cpi                  2.320784                       # CPI: cycles per instruction (thread level) ((Cycle/Count))
system.cpu.commitStats0.ipc                  0.430889                       # IPC: instructions per cycle (thread level) ((Count/Cycle))
system.cpu.commitStats0.numMemRefs        23720979675                       # Number of memory references committed (Count)
system.cpu.commitStats0.numFpInsts         5249154166                       # Number of float instructions (Count)
system.cpu.commitStats0.numIntInsts       62839691219                       # Number of integer instructions (Count)
system.cpu.commitStats0.numLoadInsts      14898238460                       # Number of load instructions (Count)
system.cpu.commitStats0.numStoreInsts      8822741215                       # Number of store instructions (Count)
system.cpu.commitStats0.numVecInsts                 0                       # Number of vector instructions (Count)
system.cpu.commitStats0.committedInstType::No_OpClass     17573968      0.03%      0.03% # Class of committed instruction. (Count)
system.cpu.commitStats0.committedInstType::IntAlu  38476004226     58.58%     58.61% # Class of committed instruction. (Count)
system.cpu.commitStats0.committedInstType::IntMult    224548230      0.34%     58.95% # Class of committed instruction. (Count)
system.cpu.commitStats0.committedInstType::IntDiv         4470      0.00%     58.95% # Class of committed instruction. (Count)
system.cpu.commitStats0.committedInstType::FloatAdd   1292918034      1.97%     60.92% # Class of committed instruction. (Count)
system.cpu.commitStats0.committedInstType::FloatCmp            0      0.00%     60.92% # Class of committed instruction. (Count)
system.cpu.commitStats0.committedInstType::FloatCvt          416      0.00%     60.92% # Class of committed instruction. (Count)
system.cpu.commitStats0.committedInstType::FloatMult            0      0.00%     60.92% # Class of committed instruction. (Count)
system.cpu.commitStats0.committedInstType::FloatMultAcc            0      0.00%     60.92% # Class of committed instruction. (Count)
system.cpu.commitStats0.committedInstType::FloatDiv            0      0.00%     60.92% # Class of committed instruction. (Count)
system.cpu.commitStats0.committedInstType::FloatMisc            0      0.00%     60.92% # Class of committed instruction. (Count)
system.cpu.commitStats0.committedInstType::FloatSqrt            0      0.00%     60.92% # Class of committed instruction. (Count)
system.cpu.commitStats0.committedInstType::SimdAdd         1920      0.00%     60.92% # Class of committed instruction. (Count)
system.cpu.commitStats0.committedInstType::SimdAddAcc            0      0.00%     60.92% # Class of committed instruction. (Count)
system.cpu.commitStats0.committedInstType::SimdAlu    436474272      0.66%     61.58% # Class of committed instruction. (Count)
system.cpu.commitStats0.committedInstType::SimdCmp           12      0.00%     61.58% # Class of committed instruction. (Count)
system.cpu.commitStats0.committedInstType::SimdCvt         5454      0.00%     61.58% # Class of committed instruction. (Count)
system.cpu.commitStats0.committedInstType::SimdMisc    431181549      0.66%     62.24% # Class of committed instruction. (Count)
system.cpu.commitStats0.committedInstType::SimdMult            0      0.00%     62.24% # Class of committed instruction. (Count)
system.cpu.commitStats0.committedInstType::SimdMultAcc            0      0.00%     62.24% # Class of committed instruction. (Count)
system.cpu.commitStats0.committedInstType::SimdMatMultAcc            0      0.00%     62.24% # Class of committed instruction. (Count)
system.cpu.commitStats0.committedInstType::SimdShift         1268      0.00%     62.24% # Class of committed instruction. (Count)
system.cpu.commitStats0.committedInstType::SimdShiftAcc            0      0.00%     62.24% # Class of committed instruction. (Count)
system.cpu.commitStats0.committedInstType::SimdDiv            0      0.00%     62.24% # Class of committed instruction. (Count)
system.cpu.commitStats0.committedInstType::SimdSqrt            0      0.00%     62.24% # Class of committed instruction. (Count)
system.cpu.commitStats0.committedInstType::SimdFloatAdd    217665792      0.33%     62.57% # Class of committed instruction. (Count)
system.cpu.commitStats0.committedInstType::SimdFloatAlu            0      0.00%     62.57% # Class of committed instruction. (Count)
system.cpu.commitStats0.committedInstType::SimdFloatCmp            0      0.00%     62.57% # Class of committed instruction. (Count)
system.cpu.commitStats0.committedInstType::SimdFloatCvt    644048356      0.98%     63.55% # Class of committed instruction. (Count)
system.cpu.commitStats0.committedInstType::SimdFloatDiv      4757376      0.01%     63.56% # Class of committed instruction. (Count)
system.cpu.commitStats0.committedInstType::SimdFloatMisc            0      0.00%     63.56% # Class of committed instruction. (Count)
system.cpu.commitStats0.committedInstType::SimdFloatMult    212906880      0.32%     63.88% # Class of committed instruction. (Count)
system.cpu.commitStats0.committedInstType::SimdFloatMultAcc            0      0.00%     63.88% # Class of committed instruction. (Count)
system.cpu.commitStats0.committedInstType::SimdFloatMatMultAcc            0      0.00%     63.88% # Class of committed instruction. (Count)
system.cpu.commitStats0.committedInstType::SimdFloatSqrt            0      0.00%     63.88% # Class of committed instruction. (Count)
system.cpu.commitStats0.committedInstType::SimdReduceAdd            0      0.00%     63.88% # Class of committed instruction. (Count)
system.cpu.commitStats0.committedInstType::SimdReduceAlu            0      0.00%     63.88% # Class of committed instruction. (Count)
system.cpu.commitStats0.committedInstType::SimdReduceCmp            0      0.00%     63.88% # Class of committed instruction. (Count)
system.cpu.commitStats0.committedInstType::SimdFloatReduceAdd            0      0.00%     63.88% # Class of committed instruction. (Count)
system.cpu.commitStats0.committedInstType::SimdFloatReduceCmp            0      0.00%     63.88% # Class of committed instruction. (Count)
system.cpu.commitStats0.committedInstType::SimdAes            0      0.00%     63.88% # Class of committed instruction. (Count)
system.cpu.commitStats0.committedInstType::SimdAesMix            0      0.00%     63.88% # Class of committed instruction. (Count)
system.cpu.commitStats0.committedInstType::SimdSha1Hash            0      0.00%     63.88% # Class of committed instruction. (Count)
system.cpu.commitStats0.committedInstType::SimdSha1Hash2            0      0.00%     63.88% # Class of committed instruction. (Count)
system.cpu.commitStats0.committedInstType::SimdSha256Hash            0      0.00%     63.88% # Class of committed instruction. (Count)
system.cpu.commitStats0.committedInstType::SimdSha256Hash2            0      0.00%     63.88% # Class of committed instruction. (Count)
system.cpu.commitStats0.committedInstType::SimdShaSigma2            0      0.00%     63.88% # Class of committed instruction. (Count)
system.cpu.commitStats0.committedInstType::SimdShaSigma3            0      0.00%     63.88% # Class of committed instruction. (Count)
system.cpu.commitStats0.committedInstType::SimdPredAlu            0      0.00%     63.88% # Class of committed instruction. (Count)
system.cpu.commitStats0.committedInstType::Matrix            0      0.00%     63.88% # Class of committed instruction. (Count)
system.cpu.commitStats0.committedInstType::MatrixMov            0      0.00%     63.88% # Class of committed instruction. (Count)
system.cpu.commitStats0.committedInstType::MatrixOP            0      0.00%     63.88% # Class of committed instruction. (Count)
system.cpu.commitStats0.committedInstType::MemRead  13359280569     20.34%     84.22% # Class of committed instruction. (Count)
system.cpu.commitStats0.committedInstType::MemWrite   8352507286     12.72%     96.94% # Class of committed instruction. (Count)
system.cpu.commitStats0.committedInstType::FloatMemRead   1538957891      2.34%     99.28% # Class of committed instruction. (Count)
system.cpu.commitStats0.committedInstType::FloatMemWrite    470233929      0.72%    100.00% # Class of committed instruction. (Count)
system.cpu.commitStats0.committedInstType::IprAccess            0      0.00%    100.00% # Class of committed instruction. (Count)
system.cpu.commitStats0.committedInstType::InstPrefetch            0      0.00%    100.00% # Class of committed instruction. (Count)
system.cpu.commitStats0.committedInstType::SimdUnitStrideLoad            0      0.00%    100.00% # Class of committed instruction. (Count)
system.cpu.commitStats0.committedInstType::SimdUnitStrideStore            0      0.00%    100.00% # Class of committed instruction. (Count)
system.cpu.commitStats0.committedInstType::SimdUnitStrideMaskLoad            0      0.00%    100.00% # Class of committed instruction. (Count)
system.cpu.commitStats0.committedInstType::SimdUnitStrideMaskStore            0      0.00%    100.00% # Class of committed instruction. (Count)
system.cpu.commitStats0.committedInstType::SimdStridedLoad            0      0.00%    100.00% # Class of committed instruction. (Count)
system.cpu.commitStats0.committedInstType::SimdStridedStore            0      0.00%    100.00% # Class of committed instruction. (Count)
system.cpu.commitStats0.committedInstType::SimdIndexedLoad            0      0.00%    100.00% # Class of committed instruction. (Count)
system.cpu.commitStats0.committedInstType::SimdIndexedStore            0      0.00%    100.00% # Class of committed instruction. (Count)
system.cpu.commitStats0.committedInstType::SimdWholeRegisterLoad            0      0.00%    100.00% # Class of committed instruction. (Count)
system.cpu.commitStats0.committedInstType::SimdWholeRegisterStore            0      0.00%    100.00% # Class of committed instruction. (Count)
system.cpu.commitStats0.committedInstType::SimdUnitStrideFaultOnlyFirstLoad            0      0.00%    100.00% # Class of committed instruction. (Count)
system.cpu.commitStats0.committedInstType::SimdUnitStrideSegmentedLoad            0      0.00%    100.00% # Class of committed instruction. (Count)
system.cpu.commitStats0.committedInstType::SimdUnitStrideSegmentedStore            0      0.00%    100.00% # Class of committed instruction. (Count)
system.cpu.commitStats0.committedInstType::SimdExt            0      0.00%    100.00% # Class of committed instruction. (Count)
system.cpu.commitStats0.committedInstType::SimdFloatExt            0      0.00%    100.00% # Class of committed instruction. (Count)
system.cpu.commitStats0.committedInstType::SimdConfig            0      0.00%    100.00% # Class of committed instruction. (Count)
system.cpu.commitStats0.committedInstType::total  65679071898                       # Class of committed instruction. (Count)
system.cpu.commitStats0.committedControl::IsControl   4919620933                       # Class of control type instructions committed (Count)
system.cpu.commitStats0.committedControl::IsDirectControl   2938107488                       # Class of control type instructions committed (Count)
system.cpu.commitStats0.committedControl::IsIndirectControl   1981513227                       # Class of control type instructions committed (Count)
system.cpu.commitStats0.committedControl::IsCondControl    957157481                       # Class of control type instructions committed (Count)
system.cpu.commitStats0.committedControl::IsUncondControl   3962463234                       # Class of control type instructions committed (Count)
system.cpu.commitStats0.committedControl::IsCall   1975087198                       # Class of control type instructions committed (Count)
system.cpu.commitStats0.committedControl::IsReturn   1975087194                       # Class of control type instructions committed (Count)
system.cpu.dcache.demandHits::cpu.data    13642250465                       # number of demand (read+write) hits (Count)
system.cpu.dcache.demandHits::total       13642250465                       # number of demand (read+write) hits (Count)
system.cpu.dcache.overallHits::cpu.data   13642250465                       # number of overall hits (Count)
system.cpu.dcache.overallHits::total      13642250465                       # number of overall hits (Count)
system.cpu.dcache.demandMisses::cpu.data    333025726                       # number of demand (read+write) misses (Count)
system.cpu.dcache.demandMisses::total       333025726                       # number of demand (read+write) misses (Count)
system.cpu.dcache.overallMisses::cpu.data    333025726                       # number of overall misses (Count)
system.cpu.dcache.overallMisses::total      333025726                       # number of overall misses (Count)
system.cpu.dcache.demandMissLatency::cpu.data 22911115107215                       # number of demand (read+write) miss ticks (Tick)
system.cpu.dcache.demandMissLatency::total 22911115107215                       # number of demand (read+write) miss ticks (Tick)
system.cpu.dcache.overallMissLatency::cpu.data 22911115107215                       # number of overall miss ticks (Tick)
system.cpu.dcache.overallMissLatency::total 22911115107215                       # number of overall miss ticks (Tick)
system.cpu.dcache.demandAccesses::cpu.data  13975276191                       # number of demand (read+write) accesses (Count)
system.cpu.dcache.demandAccesses::total   13975276191                       # number of demand (read+write) accesses (Count)
system.cpu.dcache.overallAccesses::cpu.data  13975276191                       # number of overall (read+write) accesses (Count)
system.cpu.dcache.overallAccesses::total  13975276191                       # number of overall (read+write) accesses (Count)
system.cpu.dcache.demandMissRate::cpu.data     0.023830                       # miss rate for demand accesses (Ratio)
system.cpu.dcache.demandMissRate::total      0.023830                       # miss rate for demand accesses (Ratio)
system.cpu.dcache.overallMissRate::cpu.data     0.023830                       # miss rate for overall accesses (Ratio)
system.cpu.dcache.overallMissRate::total     0.023830                       # miss rate for overall accesses (Ratio)
system.cpu.dcache.demandAvgMissLatency::cpu.data 68796.832552                       # average overall miss latency in ticks ((Tick/Count))
system.cpu.dcache.demandAvgMissLatency::total 68796.832552                       # average overall miss latency in ticks ((Tick/Count))
system.cpu.dcache.overallAvgMissLatency::cpu.data 68796.832552                       # average overall miss latency ((Tick/Count))
system.cpu.dcache.overallAvgMissLatency::total 68796.832552                       # average overall miss latency ((Tick/Count))
system.cpu.dcache.blockedCycles::no_mshrs      4801888                       # number of cycles access was blocked (Cycle)
system.cpu.dcache.blockedCycles::no_targets        44283                       # number of cycles access was blocked (Cycle)
system.cpu.dcache.blockedCauses::no_mshrs        11203                       # number of times access was blocked (Count)
system.cpu.dcache.blockedCauses::no_targets            6                       # number of times access was blocked (Count)
system.cpu.dcache.avgBlocked::no_mshrs     428.625190                       # average number of cycles each access was blocked ((Cycle/Count))
system.cpu.dcache.avgBlocked::no_targets  7380.500000                       # average number of cycles each access was blocked ((Cycle/Count))
system.cpu.dcache.writebacks::writebacks     10390030                       # number of writebacks (Count)
system.cpu.dcache.writebacks::total          10390030                       # number of writebacks (Count)
system.cpu.dcache.demandMshrHits::cpu.data       706598                       # number of demand (read+write) MSHR hits (Count)
system.cpu.dcache.demandMshrHits::total        706598                       # number of demand (read+write) MSHR hits (Count)
system.cpu.dcache.overallMshrHits::cpu.data       706598                       # number of overall MSHR hits (Count)
[...]
system.l2.ReadSharedReq.accesses::total     323718550                       # number of ReadSharedReq accesses(hits+misses) (Count)
system.l2.ReadSharedReq.missRate::cpu.data     0.120292                       # miss rate for ReadSharedReq accesses (Ratio)
system.l2.ReadSharedReq.missRate::total      0.120292                       # miss rate for ReadSharedReq accesses (Ratio)
system.l2.ReadSharedReq.avgMissLatency::cpu.data 398842.487560                       # average ReadSharedReq miss latency ((Tick/Count))
system.l2.ReadSharedReq.avgMissLatency::total 398842.487560                       # average ReadSharedReq miss latency ((Tick/Count))
system.l2.ReadSharedReq.mshrMisses::cpu.data     38940873                       # number of ReadSharedReq MSHR misses (Count)
system.l2.ReadSharedReq.mshrMisses::total     38940873                       # number of ReadSharedReq MSHR misses (Count)
system.l2.ReadSharedReq.mshrMissLatency::cpu.data 15281446909647                       # number of ReadSharedReq MSHR miss ticks (Tick)
system.l2.ReadSharedReq.mshrMissLatency::total 15281446909647                       # number of ReadSharedReq MSHR miss ticks (Tick)
system.l2.ReadSharedReq.mshrMissRate::cpu.data     0.120292                       # mshr miss rate for ReadSharedReq accesses (Ratio)
system.l2.ReadSharedReq.mshrMissRate::total     0.120292                       # mshr miss rate for ReadSharedReq accesses (Ratio)
system.l2.ReadSharedReq.avgMshrMissLatency::cpu.data 392426.921442                       # average ReadSharedReq mshr miss latency ((Tick/Count))
system.l2.ReadSharedReq.avgMshrMissLatency::total 392426.921442                       # average ReadSharedReq mshr miss latency ((Tick/Count))
system.l2.UpgradeReq.hits::cpu.data                 6                       # number of UpgradeReq hits (Count)
system.l2.UpgradeReq.hits::total                    6                       # number of UpgradeReq hits (Count)
system.l2.UpgradeReq.accesses::cpu.data             6                       # number of UpgradeReq accesses(hits+misses) (Count)
system.l2.UpgradeReq.accesses::total                6                       # number of UpgradeReq accesses(hits+misses) (Count)
system.l2.WritebackClean.hits::writebacks         9056                       # number of WritebackClean hits (Count)
system.l2.WritebackClean.hits::total             9056                       # number of WritebackClean hits (Count)
system.l2.WritebackClean.accesses::writebacks         9056                       # number of WritebackClean accesses(hits+misses) (Count)
system.l2.WritebackClean.accesses::total         9056                       # number of WritebackClean accesses(hits+misses) (Count)
system.l2.WritebackDirty.hits::writebacks     10390030                       # number of WritebackDirty hits (Count)
system.l2.WritebackDirty.hits::total         10390030                       # number of WritebackDirty hits (Count)
system.l2.WritebackDirty.accesses::writebacks     10390030                       # number of WritebackDirty accesses(hits+misses) (Count)
system.l2.WritebackDirty.accesses::total     10390030                       # number of WritebackDirty accesses(hits+misses) (Count)
system.l2.power_state.pwrStateResidencyTicks::UNDEFINED 28629073738067                       # Cumulative time (in ticks) in various power states (Tick)
system.l2.tags.tagsInUse                 32761.253404                       # Average ticks per tags in use ((Tick/Count))
system.l2.tags.totalRefs                    664654786                       # Total number of references to valid blocks. (Count)
system.l2.tags.sampledRefs                   47337041                       # Sample count of references to valid blocks. (Count)
system.l2.tags.avgRefs                      14.040903                       # Average number of references to valid blocks. ((Count/Count))
system.l2.tags.warmupTick                      430000                       # The tick when the warmup percentage was hit. (Tick)
system.l2.tags.occupancies::writebacks       4.208384                       # Average occupied blocks per tick, per requestor ((Count/Tick))
system.l2.tags.occupancies::cpu.inst         2.331213                       # Average occupied blocks per tick, per requestor ((Count/Tick))
system.l2.tags.occupancies::cpu.data     32754.713803                       # Average occupied blocks per tick, per requestor ((Count/Tick))
system.l2.tags.avgOccs::writebacks           0.000128                       # Average percentage of cache occupancy ((Ratio/Tick))
system.l2.tags.avgOccs::cpu.inst             0.000071                       # Average percentage of cache occupancy ((Ratio/Tick))
system.l2.tags.avgOccs::cpu.data             0.999595                       # Average percentage of cache occupancy ((Ratio/Tick))
system.l2.tags.avgOccs::total                0.999794                       # Average percentage of cache occupancy ((Ratio/Tick))
system.l2.tags.occupanciesTaskId::1024          32768                       # Occupied blocks per task id (Count)
system.l2.tags.ageTaskId_1024::0                   24                       # Occupied blocks per task id, per block age (Count)
system.l2.tags.ageTaskId_1024::1                  163                       # Occupied blocks per task id, per block age (Count)
system.l2.tags.ageTaskId_1024::2                 1014                       # Occupied blocks per task id, per block age (Count)
system.l2.tags.ageTaskId_1024::3                 9180                       # Occupied blocks per task id, per block age (Count)
system.l2.tags.ageTaskId_1024::4                22387                       # Occupied blocks per task id, per block age (Count)
system.l2.tags.ratioOccsTaskId::1024                1                       # Ratio of occupied blocks and all blocks, per task id (Ratio)
system.l2.tags.tagAccesses                 5364586057                       # Number of tag accesses (Count)
system.l2.tags.dataAccesses                5364586057                       # Number of data accesses (Count)
system.l2.tags.power_state.pwrStateResidencyTicks::UNDEFINED 28629073738067                       # Cumulative time (in ticks) in various power states (Tick)
system.mem_ctrls.bytesRead::cpu.inst           279552                       # Number of bytes read from this memory (Byte)
system.mem_ctrls.bytesRead::cpu.data       3028877376                       # Number of bytes read from this memory (Byte)
system.mem_ctrls.bytesRead::total          3029156928                       # Number of bytes read from this memory (Byte)
system.mem_ctrls.bytesInstRead::cpu.inst       279552                       # Number of instructions bytes read from this memory (Byte)
system.mem_ctrls.bytesInstRead::total          279552                       # Number of instructions bytes read from this memory (Byte)
system.mem_ctrls.bytesWritten::writebacks    572898944                       # Number of bytes written to this memory (Byte)
system.mem_ctrls.bytesWritten::total        572898944                       # Number of bytes written to this memory (Byte)
system.mem_ctrls.numReads::cpu.inst              4368                       # Number of read requests responded to by this memory (Count)
system.mem_ctrls.numReads::cpu.data          47326209                       # Number of read requests responded to by this memory (Count)
system.mem_ctrls.numReads::total             47330577                       # Number of read requests responded to by this memory (Count)
system.mem_ctrls.numWrites::writebacks        8951546                       # Number of write requests responded to by this memory (Count)
system.mem_ctrls.numWrites::total             8951546                       # Number of write requests responded to by this memory (Count)
system.mem_ctrls.bwRead::cpu.inst                9765                       # Total read bandwidth from this memory ((Byte/Second))
system.mem_ctrls.bwRead::cpu.data           105797254                       # Total read bandwidth from this memory ((Byte/Second))
system.mem_ctrls.bwRead::total              105807018                       # Total read bandwidth from this memory ((Byte/Second))
system.mem_ctrls.bwInstRead::cpu.inst            9765                       # Instruction read bandwidth from this memory ((Byte/Second))
system.mem_ctrls.bwInstRead::total               9765                       # Instruction read bandwidth from this memory ((Byte/Second))
system.mem_ctrls.bwWrite::writebacks         20011089                       # Write bandwidth from this memory ((Byte/Second))
system.mem_ctrls.bwWrite::total              20011089                       # Write bandwidth from this memory ((Byte/Second))
system.mem_ctrls.bwTotal::writebacks         20011089                       # Total bandwidth to/from this memory ((Byte/Second))
system.mem_ctrls.bwTotal::cpu.inst               9765                       # Total bandwidth to/from this memory ((Byte/Second))
system.mem_ctrls.bwTotal::cpu.data          105797254                       # Total bandwidth to/from this memory ((Byte/Second))
system.mem_ctrls.bwTotal::total             125818107                       # Total bandwidth to/from this memory ((Byte/Second))
system.mem_ctrls.power_state.pwrStateResidencyTicks::UNDEFINED 28629073738067                       # Cumulative time (in ticks) in various power states (Tick)
system.membus.transDist::ReadResp            38945241                       # Transaction distribution (Count)
system.membus.transDist::WritebackDirty       8951546                       # Transaction distribution (Count)
system.membus.transDist::CleanEvict          38346060                       # Transaction distribution (Count)
system.membus.transDist::ReadExReq            8385336                       # Transaction distribution (Count)
system.membus.transDist::ReadExResp           8385336                       # Transaction distribution (Count)
system.membus.transDist::ReadSharedReq       38945241                       # Transaction distribution (Count)
system.membus.pktCount_system.l2.mem_side_port::system.mem_ctrls.port    141958760                       # Packet count per connected requestor and responder (Count)
system.membus.pktCount_system.l2.mem_side_port::total    141958760                       # Packet count per connected requestor and responder (Count)
system.membus.pktCount::total               141958760                       # Packet count per connected requestor and responder (Count)
system.membus.pktSize_system.l2.mem_side_port::system.mem_ctrls.port   3602055872                       # Cumulative packet size per connected requestor and responder (Byte)
system.membus.pktSize_system.l2.mem_side_port::total   3602055872                       # Cumulative packet size per connected requestor and responder (Byte)
system.membus.pktSize::total               3602055872                       # Cumulative packet size per connected requestor and responder (Byte)
system.membus.snoops                                0                       # Total snoops (Count)
system.membus.snoopTraffic                          0                       # Total snoop traffic (Byte)
system.membus.snoopFanout::samples           47330577                       # Request fanout histogram (Count)
system.membus.snoopFanout::mean                     0                       # Request fanout histogram (Count)
system.membus.snoopFanout::stdev                    0                       # Request fanout histogram (Count)
system.membus.snoopFanout::underflows               0      0.00%      0.00% # Request fanout histogram (Count)
system.membus.snoopFanout::0                 47330577    100.00%    100.00% # Request fanout histogram (Count)
system.membus.snoopFanout::1                        0      0.00%    100.00% # Request fanout histogram (Count)
system.membus.snoopFanout::overflows                0      0.00%    100.00% # Request fanout histogram (Count)
system.membus.snoopFanout::min_value                0                       # Request fanout histogram (Count)
system.membus.snoopFanout::max_value                0                       # Request fanout histogram (Count)
system.membus.snoopFanout::total             47330577                       # Request fanout histogram (Count)
system.membus.power_state.pwrStateResidencyTicks::UNDEFINED 28629073738067                       # Cumulative time (in ticks) in various power states (Tick)
system.membus.reqLayer2.occupancy        413822186101                       # Layer occupancy (ticks) (Tick)
system.membus.reqLayer2.utilization               0.0                       # Layer utilization (Ratio)
system.membus.respLayer1.occupancy       629305466408                       # Layer occupancy (ticks) (Tick)
system.membus.respLayer1.utilization              0.0                       # Layer utilization (Ratio)
system.membus.snoop_filter.totRequests       94628183                       # Total number of requests made to the snoop filter. (Count)
system.membus.snoop_filter.hitSingleRequests     47297606                       # Number of requests hitting in the snoop filter with a single holder of the requested data. (Count)
system.membus.snoop_filter.hitMultiRequests            0                       # Number of requests hitting in the snoop filter with multiple (>1) holders of the requested data. (Count)
system.membus.snoop_filter.totSnoops                0                       # Total number of snoops made to the snoop filter. (Count)
system.membus.snoop_filter.hitSingleSnoops            0                       # Number of snoops hitting in the snoop filter with a single holder of the requested data. (Count)
system.membus.snoop_filter.hitMultiSnoops            0                       # Number of snoops hitting in the snoop filter with multiple (>1) holders of the requested data. (Count)
system.tol2bus.transDist::ReadResp          323728135                       # Transaction distribution (Count)
system.tol2bus.transDist::WritebackDirty     19341577                       # Transaction distribution (Count)
system.tol2bus.transDist::WritebackClean         9062                       # Transaction distribution (Count)
system.tol2bus.transDist::CleanEvict        360281308                       # Transaction distribution (Count)
system.tol2bus.transDist::UpgradeReq                6                       # Transaction distribution (Count)
system.tol2bus.transDist::UpgradeResp               6                       # Transaction distribution (Count)
system.tol2bus.transDist::ReadExReq           8600574                       # Transaction distribution (Count)
system.tol2bus.transDist::ReadExResp          8600574                       # Transaction distribution (Count)
system.tol2bus.transDist::ReadCleanReq           9585                       # Transaction distribution (Count)
system.tol2bus.transDist::ReadSharedReq     323718550                       # Transaction distribution (Count)
system.tol2bus.pktCount_system.cpu.icache.mem_side_port::system.l2.cpu_side_port        28223                       # Packet count per connected requestor and responder (Count)
system.tol2bus.pktCount_system.cpu.dcache.mem_side_port::system.l2.cpu_side_port    996956872                       # Packet count per connected requestor and responder (Count)
system.tol2bus.pktCount::total              996985095                       # Packet count per connected requestor and responder (Count)
system.tol2bus.pktSize_system.cpu.icache.mem_side_port::system.l2.cpu_side_port      1192832                       # Cumulative packet size per connected requestor and responder (Byte)
system.tol2bus.pktSize_system.cpu.dcache.mem_side_port::system.l2.cpu_side_port  21933385856                       # Cumulative packet size per connected requestor and responder (Byte)
system.tol2bus.pktSize::total             21934578688                       # Cumulative packet size per connected requestor and responder (Byte)
system.tol2bus.snoops                        47304282                       # Total snoops (Count)
system.tol2bus.snoopTraffic                 572899584                       # Total snoop traffic (Byte)
system.tol2bus.snoopFanout::samples         379632988                       # Request fanout histogram (Count)
system.tol2bus.snoopFanout::mean             0.000053                       # Request fanout histogram (Count)
system.tol2bus.snoopFanout::stdev            0.007582                       # Request fanout histogram (Count)
system.tol2bus.snoopFanout::underflows              0      0.00%      0.00% # Request fanout histogram (Count)
system.tol2bus.snoopFanout::0               379613793     99.99%     99.99% # Request fanout histogram (Count)
system.tol2bus.snoopFanout::1                   18319      0.00%    100.00% # Request fanout histogram (Count)
system.tol2bus.snoopFanout::2                     876      0.00%    100.00% # Request fanout histogram (Count)
system.tol2bus.snoopFanout::3                       0      0.00%    100.00% # Request fanout histogram (Count)
system.tol2bus.snoopFanout::4                       0      0.00%    100.00% # Request fanout histogram (Count)
system.tol2bus.snoopFanout::overflows               0      0.00%    100.00% # Request fanout histogram (Count)
system.tol2bus.snoopFanout::min_value               0                       # Request fanout histogram (Count)
system.tol2bus.snoopFanout::max_value               2                       # Request fanout histogram (Count)
system.tol2bus.snoopFanout::total           379632988                       # Request fanout histogram (Count)
system.tol2bus.power_state.pwrStateResidencyTicks::UNDEFINED 28629073738067                       # Cumulative time (in ticks) in various power states (Tick)
system.tol2bus.reqLayer0.occupancy       214547281349                       # Layer occupancy (ticks) (Tick)
system.tol2bus.reqLayer0.utilization              0.0                       # Layer utilization (Ratio)
system.tol2bus.respLayer0.occupancy           9004059                       # Layer occupancy (ticks) (Tick)
system.tol2bus.respLayer0.utilization             0.0                       # Layer utilization (Ratio)
system.tol2bus.respLayer1.occupancy      312047659626                       # Layer occupancy (ticks) (Tick)
system.tol2bus.respLayer1.utilization             0.0                       # Layer utilization (Ratio)
system.tol2bus.snoop_filter.totRequests     664656389                       # Total number of requests made to the snoop filter. (Count)
system.tol2bus.snoop_filter.hitSingleRequests    332327686                       # Number of requests hitting in the snoop filter with a single holder of the requested data. (Count)
system.tol2bus.snoop_filter.hitMultiRequests        11006                       # Number of requests hitting in the snoop filter with multiple (>1) holders of the requested data. (Count)
system.tol2bus.snoop_filter.totSnoops            8182                       # Total number of snoops made to the snoop filter. (Count)
system.tol2bus.snoop_filter.hitSingleSnoops         7306                       # Number of snoops hitting in the snoop filter with a single holder of the requested data. (Count)
system.tol2bus.snoop_filter.hitMultiSnoops          876                       # Number of snoops hitting in the snoop filter with multiple (>1) holders of the requested data. (Count)
system.voltage_domain.voltage                       1                       # Voltage in Volts (Volt)
system.workload.inst.arm                            0                       # number of arm instructions executed (Count)
system.workload.inst.quiesce                        0                       # number of quiesce instructions executed (Count)

---------- End Simulation Statistics   ----------
