
---------- Begin Simulation Statistics ----------
simSeconds                                   0.061406                       # Number of seconds simulated (Second)
simTicks                                  61405781365                       # Number of ticks simulated (Tick)
finalTick                                 61405781365                       # Number of ticks from beginning of simulation (restored from checkpoints and never reset) (Tick)
simFreq                                  1000000000000                       # The number of ticks per simulated second ((Tick/Second))
hostSeconds                                     70.78                       # Real time elapsed on the host (Second)
hostTickRate                                867540854                       # The number of ticks simulated per host second (ticks/s) ((Tick/Second))
hostMemory                                     856712                       # Number of bytes of host memory used (Byte)
simInsts                                     86767332                       # Number of instructions simulated (Count)
simOps                                      170830468                       # Number of ops (including micro ops) simulated (Count)
hostInstRate                                  1225846                       # Simulator instruction rate (inst/s) ((Count/Second))
hostOpRate                                    2413486                       # Simulator op (including micro ops) rate (op/s) ((Count/Second))
system.clk_domain.clock                          2500                       # Clock period in ticks (Tick)
system.cpu.numCycles                        196184964                       # Number of cpu cycles simulated (Cycle)
system.cpu.cpi                               2.261034                       # CPI: cycles per instruction (core level) ((Cycle/Count))
system.cpu.ipc                               0.442275                       # IPC: instructions per cycle (core level) ((Count/Cycle))
system.cpu.numWorkItemsStarted                      0                       # Number of work items this cpu started (Count)
system.cpu.numWorkItemsCompleted                    0                       # Number of work items this cpu completed (Count)
system.cpu.commitStats0.numInsts             86767791                       # Number of instructions committed (thread level) (Count)
system.cpu.commitStats0.numOps              170830984                       # Number of ops (including micro ops) committed (thread level) (Count)
system.cpu.commitStats0.numInstsNotNOP              0                       # Number of instructions committed excluding NOPs or prefetches (Count)
system.cpu.commitStats0.numOpsNotNOP                0                       # Number of Ops (including micro ops) Simulated (Count)
system.cpu.commitStats0.cpi                  2.261034                       # CPI: cycles per instruction (thread level) ((Cycle/Count))
system.cpu.commitStats0.ipc                  0.442275                       # IPC: instructions per cycle (thread level) ((Count/Cycle))
system.cpu.commitStats0.numMemRefs                  0                       # Number of memory references committed (Count)
system.cpu.commitStats0.numFpInsts             279839                       # Number of float instructions (Count)
system.cpu.commitStats0.numIntInsts         170667817                       # Number of integer instructions (Count)
system.cpu.commitStats0.numLoadInsts         26567158                       # Number of load instructions (Count)
system.cpu.commitStats0.numStoreInsts        14481151                       # Number of store instructions (Count)
system.cpu.commitStats0.numVecInsts                 0                       # Number of vector instructions (Count)
system.cpu.commitStats0.committedInstType::No_OpClass         2674      0.00%      0.00% # Class of committed instruction. (Count)
system.cpu.commitStats0.committedInstType::IntAlu    129587547     75.86%     75.86% # Class of committed instruction. (Count)
system.cpu.commitStats0.committedInstType::IntMult        14018      0.01%     75.87% # Class of committed instruction. (Count)
system.cpu.commitStats0.committedInstType::IntDiv         3765      0.00%     75.87% # Class of committed instruction. (Count)
system.cpu.commitStats0.committedInstType::FloatAdd        65895      0.04%     75.91% # Class of committed instruction. (Count)
system.cpu.commitStats0.committedInstType::FloatCmp            0      0.00%     75.91% # Class of committed instruction. (Count)
system.cpu.commitStats0.committedInstType::FloatCvt          416      0.00%     75.91% # Class of committed instruction. (Count)
system.cpu.commitStats0.committedInstType::FloatMult            0      0.00%     75.91% # Class of committed instruction. (Count)
system.cpu.commitStats0.committedInstType::FloatMultAcc            0      0.00%     75.91% # Class of committed instruction. (Count)
system.cpu.commitStats0.committedInstType::FloatDiv            0      0.00%     75.91% # Class of committed instruction. (Count)
system.cpu.commitStats0.committedInstType::FloatMisc            0      0.00%     75.91% # Class of committed instruction. (Count)
system.cpu.commitStats0.committedInstType::FloatSqrt            0      0.00%     75.91% # Class of committed instruction. (Count)
system.cpu.commitStats0.committedInstType::SimdAdd           16      0.00%     75.91% # Class of committed instruction. (Count)
system.cpu.commitStats0.committedInstType::SimdAddAcc            0      0.00%     75.91% # Class of committed instruction. (Count)
system.cpu.commitStats0.committedInstType::SimdAlu        28830      0.02%     75.92% # Class of committed instruction. (Count)
system.cpu.commitStats0.committedInstType::SimdCmp            0      0.00%     75.92% # Class of committed instruction. (Count)
system.cpu.commitStats0.committedInstType::SimdCvt          530      0.00%     75.93% # Class of committed instruction. (Count)
system.cpu.commitStats0.committedInstType::SimdMisc        22152      0.01%     75.94% # Class of committed instruction. (Count)
system.cpu.commitStats0.committedInstType::SimdMult            0      0.00%     75.94% # Class of committed instruction. (Count)
system.cpu.commitStats0.committedInstType::SimdMultAcc            0      0.00%     75.94% # Class of committed instruction. (Count)
system.cpu.commitStats0.committedInstType::SimdMatMultAcc            0      0.00%     75.94% # Class of committed instruction. (Count)
system.cpu.commitStats0.committedInstType::SimdShift            0      0.00%     75.94% # Class of committed instruction. (Count)
system.cpu.commitStats0.committedInstType::SimdShiftAcc            0      0.00%     75.94% # Class of committed instruction. (Count)
system.cpu.commitStats0.committedInstType::SimdDiv            0      0.00%     75.94% # Class of committed instruction. (Count)
system.cpu.commitStats0.committedInstType::SimdSqrt            0      0.00%     75.94% # Class of committed instruction. (Count)
system.cpu.commitStats0.committedInstType::SimdFloatAdd        13824      0.01%     75.95% # Class of committed instruction. (Count)
system.cpu.commitStats0.committedInstType::SimdFloatAlu            0      0.00%     75.95% # Class of committed instruction. (Count)
system.cpu.commitStats0.committedInstType::SimdFloatCmp            0      0.00%     75.95% # Class of committed instruction. (Count)
system.cpu.commitStats0.committedInstType::SimdFloatCvt        28800      0.02%     75.96% # Class of committed instruction. (Count)
system.cpu.commitStats0.committedInstType::SimdFloatDiv         6912      0.00%     75.97% # Class of committed instruction. (Count)
system.cpu.commitStats0.committedInstType::SimdFloatMisc            0      0.00%     75.97% # Class of committed instruction. (Count)
system.cpu.commitStats0.committedInstType::SimdFloatMult         7296      0.00%     75.97% # Class of committed instruction. (Count)
system.cpu.commitStats0.committedInstType::SimdFloatMultAcc            0      0.00%     75.97% # Class of committed instruction. (Count)
system.cpu.commitStats0.committedInstType::SimdFloatMatMultAcc            0      0.00%     75.97% # Class of committed instruction. (Count)
system.cpu.commitStats0.committedInstType::SimdFloatSqrt            0      0.00%     75.97% # Class of committed instruction. (Count)
system.cpu.commitStats0.committedInstType::SimdReduceAdd            0      0.00%     75.97% # Class of committed instruction. (Count)
system.cpu.commitStats0.committedInstType::SimdReduceAlu            0      0.00%     75.97% # Class of committed instruction. (Count)
system.cpu.commitStats0.committedInstType::SimdReduceCmp            0      0.00%     75.97% # Class of committed instruction. (Count)
system.cpu.commitStats0.committedInstType::SimdFloatReduceAdd            0      0.00%     75.97% # Class of committed instruction. (Count)
system.cpu.commitStats0.committedInstType::SimdFloatReduceCmp            0      0.00%     75.97% # Class of committed instruction. (Count)
system.cpu.commitStats0.committedInstType::SimdAes            0      0.00%     75.97% # Class of committed instruction. (Count)
system.cpu.commitStats0.committedInstType::SimdAesMix            0      0.00%     75.97% # Class of committed instruction. (Count)
system.cpu.commitStats0.committedInstType::SimdSha1Hash            0      0.00%     75.97% # Class of committed instruction. (Count)
system.cpu.commitStats0.committedInstType::SimdSha1Hash2            0      0.00%     75.97% # Class of committed instruction. (Count)
system.cpu.commitStats0.committedInstType::SimdSha256Hash            0      0.00%     75.97% # Class of committed instruction. (Count)
system.cpu.commitStats0.committedInstType::SimdSha256Hash2            0      0.00%     75.97% # Class of committed instruction. (Count)
system.cpu.commitStats0.committedInstType::SimdShaSigma2            0      0.00%     75.97% # Class of committed instruction. (Count)
system.cpu.commitStats0.committedInstType::SimdShaSigma3            0      0.00%     75.97% # Class of committed instruction. (Count)
system.cpu.commitStats0.committedInstType::SimdPredAlu            0      0.00%     75.97% # Class of committed instruction. (Count)
system.cpu.commitStats0.committedInstType::Matrix            0      0.00%     75.97% # Class of committed instruction. (Count)
system.cpu.commitStats0.committedInstType::MatrixMov            0      0.00%     75.97% # Class of committed instruction. (Count)
system.cpu.commitStats0.committedInstType::MatrixOP            0      0.00%     75.97% # Class of committed instruction. (Count)
system.cpu.commitStats0.committedInstType::MemRead     26492899     15.51%     91.48% # Class of committed instruction. (Count)
system.cpu.commitStats0.committedInstType::MemWrite     14450361      8.46%     99.94% # Class of committed instruction. (Count)
system.cpu.commitStats0.committedInstType::FloatMemRead        74259      0.04%     99.98% # Class of committed instruction. (Count)
system.cpu.commitStats0.committedInstType::FloatMemWrite        30790      0.02%    100.00% # Class of committed instruction. (Count)
system.cpu.commitStats0.committedInstType::IprAccess            0      0.00%    100.00% # Class of committed instruction. (Count)
system.cpu.commitStats0.committedInstType::InstPrefetch            0      0.00%    100.00% # Class of committed instruction. (Count)
system.cpu.commitStats0.committedInstType::SimdUnitStrideLoad            0      0.00%    100.00% # Class of committed instruction. (Count)
system.cpu.commitStats0.committedInstType::SimdUnitStrideStore            0      0.00%    100.00% # Class of committed instruction. (Count)
system.cpu.commitStats0.committedInstType::SimdUnitStrideMaskLoad            0      0.00%    100.00% # Class of committed instruction. (Count)
system.cpu.commitStats0.committedInstType::SimdUnitStrideMaskStore            0      0.00%    100.00% # Class of committed instruction. (Count)
system.cpu.commitStats0.committedInstType::SimdStridedLoad            0      0.00%    100.00% # Class of committed instruction. (Count)
system.cpu.commitStats0.committedInstType::SimdStridedStore            0      0.00%    100.00% # Class of committed instruction. (Count)
system.cpu.commitStats0.committedInstType::SimdIndexedLoad            0      0.00%    100.00% # Class of committed instruction. (Count)
system.cpu.commitStats0.committedInstType::SimdIndexedStore            0      0.00%    100.00% # Class of committed instruction. (Count)
system.cpu.commitStats0.committedInstType::SimdWholeRegisterLoad            0      0.00%    100.00% # Class of committed instruction. (Count)
system.cpu.commitStats0.committedInstType::SimdWholeRegisterStore            0      0.00%    100.00% # Class of committed instruction. (Count)
system.cpu.commitStats0.committedInstType::SimdUnitStrideFaultOnlyFirstLoad            0      0.00%    100.00% # Class of committed instruction. (Count)
system.cpu.commitStats0.committedInstType::SimdUnitStrideSegmentedLoad            0      0.00%    100.00% # Class of committed instruction. (Count)
system.cpu.commitStats0.committedInstType::SimdUnitStrideSegmentedStore            0      0.00%    100.00% # Class of committed instruction. (Count)
system.cpu.commitStats0.committedInstType::SimdExt            0      0.00%    100.00% # Class of committed instruction. (Count)
system.cpu.commitStats0.committedInstType::SimdFloatExt            0      0.00%    100.00% # Class of committed instruction. (Count)
system.cpu.commitStats0.committedInstType::SimdConfig            0      0.00%    100.00% # Class of committed instruction. (Count)
system.cpu.commitStats0.committedInstType::total    170830984                       # Class of committed instruction. (Count)
system.cpu.commitStats0.committedControl::IsControl     19198551                       # Class of control type instructions committed (Count)
system.cpu.commitStats0.committedControl::IsDirectControl     14409003                       # Class of control type instructions committed (Count)
system.cpu.commitStats0.committedControl::IsIndirectControl      4789548                       # Class of control type instructions committed (Count)
system.cpu.commitStats0.committedControl::IsCondControl     10799434                       # Class of control type instructions committed (Count)
system.cpu.commitStats0.committedControl::IsUncondControl      8399117                       # Class of control type instructions committed (Count)
system.cpu.commitStats0.committedControl::IsCall      3601447                       # Class of control type instructions committed (Count)
system.cpu.commitStats0.committedControl::IsReturn      3601443                       # Class of control type instructions committed (Count)
system.cpu.dcache.demandHits::cpu.data       40728435                       # number of demand (read+write) hits (Count)
system.cpu.dcache.demandHits::total          40728435                       # number of demand (read+write) hits (Count)
system.cpu.dcache.overallHits::cpu.data      40728435                       # number of overall hits (Count)
system.cpu.dcache.overallHits::total         40728435                       # number of overall hits (Count)
system.cpu.dcache.demandMisses::cpu.data        23505                       # number of demand (read+write) misses (Count)
system.cpu.dcache.demandMisses::total           23505                       # number of demand (read+write) misses (Count)
system.cpu.dcache.overallMisses::cpu.data        23505                       # number of overall misses (Count)
system.cpu.dcache.overallMisses::total          23505                       # number of overall misses (Count)
system.cpu.dcache.demandAccesses::cpu.data     40751940                       # number of demand (read+write) accesses (Count)
system.cpu.dcache.demandAccesses::total      40751940                       # number of demand (read+write) accesses (Count)
system.cpu.dcache.overallAccesses::cpu.data     40751940                       # number of overall (read+write) accesses (Count)
system.cpu.dcache.overallAccesses::total     40751940                       # number of overall (read+write) accesses (Count)
system.cpu.dcache.demandMissRate::cpu.data     0.000577                       # miss rate for demand accesses (Ratio)
system.cpu.dcache.demandMissRate::total      0.000577                       # miss rate for demand accesses (Ratio)
system.cpu.dcache.overallMissRate::cpu.data     0.000577                       # miss rate for overall accesses (Ratio)
system.cpu.dcache.overallMissRate::total     0.000577                       # miss rate for overall accesses (Ratio)
system.cpu.dcache.blockedCycles::no_mshrs            0                       # number of cycles access was blocked (Cycle)
system.cpu.dcache.blockedCycles::no_targets            0                       # number of cycles access was blocked (Cycle)
system.cpu.dcache.blockedCauses::no_mshrs            0                       # number of times access was blocked (Count)
system.cpu.dcache.blockedCauses::no_targets            0                       # number of times access was blocked (Count)
system.cpu.dcache.avgBlocked::no_mshrs            nan                       # average number of cycles each access was blocked ((Cycle/Count))
system.cpu.dcache.avgBlocked::no_targets          nan                       # average number of cycles each access was blocked ((Cycle/Count))
system.cpu.dcache.writebacks::writebacks        18739                       # number of writebacks (Count)
system.cpu.dcache.writebacks::total             18739                       # number of writebacks (Count)
system.cpu.dcache.replacements                  22995                       # number of replacements (Count)
system.cpu.dcache.LockedRMWReadReq.hits::cpu.data          151                       # number of LockedRMWReadReq hits (Count)
system.cpu.dcache.LockedRMWReadReq.hits::total          151                       # number of LockedRMWReadReq hits (Count)
system.cpu.dcache.LockedRMWReadReq.misses::cpu.data            2                       # number of LockedRMWReadReq misses (Count)
system.cpu.dcache.LockedRMWReadReq.misses::total            2                       # number of LockedRMWReadReq misses (Count)
system.cpu.dcache.LockedRMWReadReq.accesses::cpu.data          153                       # number of LockedRMWReadReq accesses(hits+misses) (Count)
system.cpu.dcache.LockedRMWReadReq.accesses::total          153                       # number of LockedRMWReadReq accesses(hits+misses) (Count)
system.cpu.dcache.LockedRMWReadReq.missRate::cpu.data     0.013072                       # miss rate for LockedRMWReadReq accesses (Ratio)
system.cpu.dcache.LockedRMWReadReq.missRate::total     0.013072                       # miss rate for LockedRMWReadReq accesses (Ratio)
system.cpu.dcache.LockedRMWWriteReq.hits::cpu.data          153                       # number of LockedRMWWriteReq hits (Count)
system.cpu.dcache.LockedRMWWriteReq.hits::total          153                       # number of LockedRMWWriteReq hits (Count)
system.cpu.dcache.LockedRMWWriteReq.accesses::cpu.data          153                       # number of LockedRMWWriteReq accesses(hits+misses) (Count)
system.cpu.dcache.LockedRMWWriteReq.accesses::total          153                       # number of LockedRMWWriteReq accesses(hits+misses) (Count)
system.cpu.dcache.ReadReq.hits::cpu.data     26560647                       # number of ReadReq hits (Count)
system.cpu.dcache.ReadReq.hits::total        26560647                       # number of ReadReq hits (Count)
system.cpu.dcache.ReadReq.misses::cpu.data         6302                       # number of ReadReq misses (Count)
system.cpu.dcache.ReadReq.misses::total          6302                       # number of ReadReq misses (Count)
system.cpu.dcache.ReadReq.accesses::cpu.data     26566949                       # number of ReadReq accesses(hits+misses) (Count)
system.cpu.dcache.ReadReq.accesses::total     26566949                       # number of ReadReq accesses(hits+misses) (Count)
system.cpu.dcache.ReadReq.missRate::cpu.data     0.000237                       # miss rate for ReadReq accesses (Ratio)
system.cpu.dcache.ReadReq.missRate::total     0.000237                       # miss rate for ReadReq accesses (Ratio)
system.cpu.dcache.WriteReq.hits::cpu.data     14167788                       # number of WriteReq hits (Count)
system.cpu.dcache.WriteReq.hits::total       14167788                       # number of WriteReq hits (Count)
system.cpu.dcache.WriteReq.misses::cpu.data        17203                       # number of WriteReq misses (Count)
system.cpu.dcache.WriteReq.misses::total        17203                       # number of WriteReq misses (Count)
system.cpu.dcache.WriteReq.accesses::cpu.data     14184991                       # number of WriteReq accesses(hits+misses) (Count)
system.cpu.dcache.WriteReq.accesses::total     14184991                       # number of WriteReq accesses(hits+misses) (Count)
system.cpu.dcache.WriteReq.missRate::cpu.data     0.001213                       # miss rate for WriteReq accesses (Ratio)
system.cpu.dcache.WriteReq.missRate::total     0.001213                       # miss rate for WriteReq accesses (Ratio)
system.cpu.dcache.power_state.pwrStateResidencyTicks::UNDEFINED  61405781365                       # Cumulative time (in ticks) in various power states (Tick)
system.cpu.dcache.tags.tagsInUse           511.876362                       # Average ticks per tags in use ((Tick/Count))
system.cpu.dcache.tags.totalRefs             40752246                       # Total number of references to valid blocks. (Count)
system.cpu.dcache.tags.sampledRefs              23507                       # Sample count of references to valid blocks. (Count)
system.cpu.dcache.tags.avgRefs            1733.621730                       # Average number of references to valid blocks. ((Count/Count))
system.cpu.dcache.tags.warmupTick                 939                       # The tick when the warmup percentage was hit. (Tick)
system.cpu.dcache.tags.occupancies::cpu.data   511.876362                       # Average occupied blocks per tick, per requestor ((Count/Tick))
system.cpu.dcache.tags.avgOccs::cpu.data     0.999759                       # Average percentage of cache occupancy ((Ratio/Tick))
system.cpu.dcache.tags.avgOccs::total        0.999759                       # Average percentage of cache occupancy ((Ratio/Tick))
system.cpu.dcache.tags.occupanciesTaskId::1024          512                       # Occupied blocks per task id (Count)
system.cpu.dcache.tags.ageTaskId_1024::0          214                       # Occupied blocks per task id, per block age (Count)
system.cpu.dcache.tags.ageTaskId_1024::1          110                       # Occupied blocks per task id, per block age (Count)
system.cpu.dcache.tags.ageTaskId_1024::2          187                       # Occupied blocks per task id, per block age (Count)
system.cpu.dcache.tags.ageTaskId_1024::4            1                       # Occupied blocks per task id, per block age (Count)
system.cpu.dcache.tags.ratioOccsTaskId::1024            1                       # Ratio of occupied blocks and all blocks, per task id (Ratio)
system.cpu.dcache.tags.tagAccesses           81527999                       # Number of tag accesses (Count)
system.cpu.dcache.tags.dataAccesses          81527999                       # Number of data accesses (Count)
system.cpu.dcache.tags.power_state.pwrStateResidencyTicks::UNDEFINED  61405781365                       # Cumulative time (in ticks) in various power states (Tick)
system.cpu.dtb_walker_cache.blockedCycles::no_mshrs            0                       # number of cycles access was blocked (Cycle)
system.cpu.dtb_walker_cache.blockedCycles::no_targets            0                       # number of cycles access was blocked (Cycle)
system.cpu.dtb_walker_cache.blockedCauses::no_mshrs            0                       # number of times access was blocked (Count)
system.cpu.dtb_walker_cache.blockedCauses::no_targets            0                       # number of times access was blocked (Count)
system.cpu.dtb_walker_cache.avgBlocked::no_mshrs          nan                       # average number of cycles each access was blocked ((Cycle/Count))
system.cpu.dtb_walker_cache.avgBlocked::no_targets          nan                       # average number of cycles each access was blocked ((Cycle/Count))
system.cpu.dtb_walker_cache.replacements            0                       # number of replacements (Count)
system.cpu.dtb_walker_cache.power_state.pwrStateResidencyTicks::UNDEFINED  61405781365                       # Cumulative time (in ticks) in various power states (Tick)
system.cpu.dtb_walker_cache.tags.tagsInUse            0                       # Average ticks per tags in use ((Tick/Count))
system.cpu.dtb_walker_cache.tags.totalRefs            0                       # Total number of references to valid blocks. (Count)
system.cpu.dtb_walker_cache.tags.sampledRefs            0                       # Sample count of references to valid blocks. (Count)
system.cpu.dtb_walker_cache.tags.avgRefs          nan                       # Average number of references to valid blocks. ((Count/Count))
system.cpu.dtb_walker_cache.tags.warmupTick            0                       # The tick when the warmup percentage was hit. (Tick)
system.cpu.dtb_walker_cache.tags.tagAccesses            0                       # Number of tag accesses (Count)
system.cpu.dtb_walker_cache.tags.dataAccesses            0                       # Number of data accesses (Count)
system.cpu.dtb_walker_cache.tags.power_state.pwrStateResidencyTicks::UNDEFINED  61405781365                       # Cumulative time (in ticks) in various power states (Tick)
system.cpu.exec_context.thread_0.numMatAluAccesses            0                       # Number of matrix alu accesses (Count)
system.cpu.exec_context.thread_0.numCallsReturns      7202890                       # Number of times a function call or return occured (Count)
system.cpu.exec_context.thread_0.numMatInsts            0                       # Number of matrix instructions (Count)
system.cpu.exec_context.thread_0.numIdleCycles     0.003195                       # Number of idle cycles (Cycle)
system.cpu.exec_context.thread_0.numBusyCycles 196184963.996805                       # Number of busy cycles (Cycle)
system.cpu.exec_context.thread_0.notIdleFraction     1.000000                       # Percentage of non-idle cycles (Ratio)
system.cpu.exec_context.thread_0.idleFraction     0.000000                       # Percentage of idle cycles (Ratio)
system.cpu.executeStats0.numInsts                   0                       # Number of executed instructions (Count)
system.cpu.executeStats0.numNop                     0                       # Number of nop insts executed (Count)
system.cpu.executeStats0.numBranches                0                       # Number of branches executed (Count)
system.cpu.executeStats0.numLoadInsts               0                       # Number of load instructions executed (Count)
system.cpu.executeStats0.numStoreInsts       41048309                       # Number of stores executed (Count)
system.cpu.executeStats0.instRate                   0                       # Inst execution rate ((Count/Cycle))
system.cpu.executeStats0.numFpAluAccesses       279839                       # Number of float alu accesses (Count)
system.cpu.executeStats0.numFpRegReads         254742                       # Number of times the floating registers were read (Count)
system.cpu.executeStats0.numFpRegWrites        226229                       # Number of times the floating registers were written (Count)
system.cpu.executeStats0.numIntAluAccesses    170667817                       # Number of integer alu accesses (Count)
system.cpu.executeStats0.numIntRegReads     201803828                       # Number of times the integer registers were read (Count)
system.cpu.executeStats0.numIntRegWrites    126175790                       # Number of times the integer registers were written (Count)
system.cpu.executeStats0.numMemRefs          41048309                       # Number of memory refs (Count)
system.cpu.executeStats0.numMiscRegReads     81803687                       # Number of times the Misc registers were read (Count)
system.cpu.executeStats0.numMiscRegWrites          234                       # Number of times the Misc registers were written (Count)
system.cpu.executeStats0.numVecAluAccesses            0                       # Number of vector alu accesses (Count)
system.cpu.executeStats0.numDiscardedOps            0                       # Number of ops (including micro ops) which were discarded before commit (Count)
system.cpu.fetchStats0.numInsts              86767791                       # Number of instructions fetched (thread level) (Count)
system.cpu.fetchStats0.numOps               170830984                       # Number of ops (including micro ops) fetched (thread level) (Count)
system.cpu.fetchStats0.fetchRate             0.442275                       # Number of inst fetches per cycle ((Count/Cycle))
system.cpu.fetchStats0.numBranches           19198551                       # Number of branches fetched (Count)
system.cpu.fetchStats0.branchRate            0.097859                       # Number of branch fetches per cycle (Ratio)
system.cpu.fetchStats0.numFetchSuspends             0                       # Number of times Execute suspended instruction fetching (Count)
system.cpu.icache.demandHits::cpu.inst      112119238                       # number of demand (read+write) hits (Count)
system.cpu.icache.demandHits::total         112119238                       # number of demand (read+write) hits (Count)
system.cpu.icache.overallHits::cpu.inst     112119238                       # number of overall hits (Count)
system.cpu.icache.overallHits::total        112119238                       # number of overall hits (Count)
system.cpu.icache.demandMisses::cpu.inst         2517                       # number of demand (read+write) misses (Count)
system.cpu.icache.demandMisses::total            2517                       # number of demand (read+write) misses (Count)
system.cpu.icache.overallMisses::cpu.inst         2517                       # number of overall misses (Count)
system.cpu.icache.overallMisses::total           2517                       # number of overall misses (Count)
system.cpu.icache.demandAccesses::cpu.inst    112121755                       # number of demand (read+write) accesses (Count)
system.cpu.icache.demandAccesses::total     112121755                       # number of demand (read+write) accesses (Count)
system.cpu.icache.overallAccesses::cpu.inst    112121755                       # number of overall (read+write) accesses (Count)
system.cpu.icache.overallAccesses::total    112121755                       # number of overall (read+write) accesses (Count)
system.cpu.icache.demandMissRate::cpu.inst     0.000022                       # miss rate for demand accesses (Ratio)
system.cpu.icache.demandMissRate::total      0.000022                       # miss rate for demand accesses (Ratio)
system.cpu.icache.overallMissRate::cpu.inst     0.000022                       # miss rate for overall accesses (Ratio)
system.cpu.icache.overallMissRate::total     0.000022                       # miss rate for overall accesses (Ratio)
system.cpu.icache.blockedCycles::no_mshrs            0                       # number of cycles access was blocked (Cycle)
system.cpu.icache.blockedCycles::no_targets            0                       # number of cycles access was blocked (Cycle)
system.cpu.icache.blockedCauses::no_mshrs            0                       # number of times access was blocked (Count)
system.cpu.icache.blockedCauses::no_targets            0                       # number of times access was blocked (Count)
system.cpu.icache.avgBlocked::no_mshrs            nan                       # average number of cycles each access was blocked ((Cycle/Count))
system.cpu.icache.avgBlocked::no_targets          nan                       # average number of cycles each access was blocked ((Cycle/Count))
system.cpu.icache.writebacks::writebacks         2006                       # number of writebacks (Count)
system.cpu.icache.writebacks::total              2006                       # number of writebacks (Count)
system.cpu.icache.replacements                   2006                       # number of replacements (Count)
system.cpu.icache.ReadReq.hits::cpu.inst    112119238                       # number of ReadReq hits (Count)
system.cpu.icache.ReadReq.hits::total       112119238                       # number of ReadReq hits (Count)
system.cpu.icache.ReadReq.misses::cpu.inst         2517                       # number of ReadReq misses (Count)
system.cpu.icache.ReadReq.misses::total          2517                       # number of ReadReq misses (Count)
system.cpu.icache.ReadReq.accesses::cpu.inst    112121755                       # number of ReadReq accesses(hits+misses) (Count)
system.cpu.icache.ReadReq.accesses::total    112121755                       # number of ReadReq accesses(hits+misses) (Count)
system.cpu.icache.ReadReq.missRate::cpu.inst     0.000022                       # miss rate for ReadReq accesses (Ratio)
system.cpu.icache.ReadReq.missRate::total     0.000022                       # miss rate for ReadReq accesses (Ratio)
system.cpu.icache.power_state.pwrStateResidencyTicks::UNDEFINED  61405781365                       # Cumulative time (in ticks) in various power states (Tick)
system.cpu.icache.tags.tagsInUse           506.736270                       # Average ticks per tags in use ((Tick/Count))
system.cpu.icache.tags.totalRefs            112121755                       # Total number of references to valid blocks. (Count)
system.cpu.icache.tags.sampledRefs               2517                       # Sample count of references to valid blocks. (Count)
system.cpu.icache.tags.avgRefs           44545.790624                       # Average number of references to valid blocks. ((Count/Count))
system.cpu.icache.tags.warmupTick                   0                       # The tick when the warmup percentage was hit. (Tick)
system.cpu.icache.tags.occupancies::cpu.inst   506.736270                       # Average occupied blocks per tick, per requestor ((Count/Tick))
system.cpu.icache.tags.avgOccs::cpu.inst     0.989719                       # Average percentage of cache occupancy ((Ratio/Tick))
system.cpu.icache.tags.avgOccs::total        0.989719                       # Average percentage of cache occupancy ((Ratio/Tick))
system.cpu.icache.tags.occupanciesTaskId::1024          511                       # Occupied blocks per task id (Count)
system.cpu.icache.tags.ageTaskId_1024::0          177                       # Occupied blocks per task id, per block age (Count)
system.cpu.icache.tags.ageTaskId_1024::1            8                       # Occupied blocks per task id, per block age (Count)
system.cpu.icache.tags.ageTaskId_1024::2           89                       # Occupied blocks per task id, per block age (Count)
system.cpu.icache.tags.ageTaskId_1024::4          237                       # Occupied blocks per task id, per block age (Count)
system.cpu.icache.tags.ratioOccsTaskId::1024     0.998047                       # Ratio of occupied blocks and all blocks, per task id (Ratio)
system.cpu.icache.tags.tagAccesses          224246027                       # Number of tag accesses (Count)
system.cpu.icache.tags.dataAccesses         224246027                       # Number of data accesses (Count)
system.cpu.icache.tags.power_state.pwrStateResidencyTicks::UNDEFINED  61405781365                       # Cumulative time (in ticks) in various power states (Tick)
system.cpu.interrupts.clk_domain.clock           5008                       # Clock period in ticks (Tick)
system.cpu.itb_walker_cache.blockedCycles::no_mshrs            0                       # number of cycles access was blocked (Cycle)
system.cpu.itb_walker_cache.blockedCycles::no_targets            0                       # number of cycles access was blocked (Cycle)
system.cpu.itb_walker_cache.blockedCauses::no_mshrs            0                       # number of times access was blocked (Count)
system.cpu.itb_walker_cache.blockedCauses::no_targets            0                       # number of times access was blocked (Count)
system.cpu.itb_walker_cache.avgBlocked::no_mshrs          nan                       # average number of cycles each access was blocked ((Cycle/Count))
system.cpu.itb_walker_cache.avgBlocked::no_targets          nan                       # average number of cycles each access was blocked ((Cycle/Count))
system.cpu.itb_walker_cache.replacements            0                       # number of replacements (Count)
system.cpu.itb_walker_cache.power_state.pwrStateResidencyTicks::UNDEFINED  61405781365                       # Cumulative time (in ticks) in various power states (Tick)
system.cpu.itb_walker_cache.tags.tagsInUse            0                       # Average ticks per tags in use ((Tick/Count))
system.cpu.itb_walker_cache.tags.totalRefs            0                       # Total number of references to valid blocks. (Count)
system.cpu.itb_walker_cache.tags.sampledRefs            0                       # Sample count of references to valid blocks. (Count)
system.cpu.itb_walker_cache.tags.avgRefs          nan                       # Average number of references to valid blocks. ((Count/Count))
system.cpu.itb_walker_cache.tags.warmupTick            0                       # The tick when the warmup percentage was hit. (Tick)
system.cpu.itb_walker_cache.tags.tagAccesses            0                       # Number of tag accesses (Count)
system.cpu.itb_walker_cache.tags.dataAccesses            0                       # Number of data accesses (Count)
system.cpu.itb_walker_cache.tags.power_state.pwrStateResidencyTicks::UNDEFINED  61405781365                       # Cumulative time (in ticks) in various power states (Tick)
system.cpu.mmu.dtb.rdAccesses                26567172                       # TLB accesses on read requests (Count)
system.cpu.mmu.dtb.wrAccesses                14481167                       # TLB accesses on write requests (Count)
system.cpu.mmu.dtb.rdMisses                       491                       # TLB misses on read requests (Count)
system.cpu.mmu.dtb.wrMisses                       689                       # TLB misses on write requests (Count)
system.cpu.mmu.dtb.walker.power_state.pwrStateResidencyTicks::UNDEFINED  61405781365                       # Cumulative time (in ticks) in various power states (Tick)
system.cpu.mmu.itb.rdAccesses                       0                       # TLB accesses on read requests (Count)
system.cpu.mmu.itb.wrAccesses               112121828                       # TLB accesses on write requests (Count)
system.cpu.mmu.itb.rdMisses                         0                       # TLB misses on read requests (Count)
system.cpu.mmu.itb.wrMisses                       525                       # TLB misses on write requests (Count)
system.cpu.mmu.itb.walker.power_state.pwrStateResidencyTicks::UNDEFINED  61405781365                       # Cumulative time (in ticks) in various power states (Tick)
system.cpu.power_state.pwrStateResidencyTicks::ON  61405781365                       # Cumulative time (in ticks) in various power states (Tick)
system.cpu.thread_0.numInsts                        0                       # Number of Instructions committed (Count)
system.cpu.thread_0.numOps                          0                       # Number of Ops committed (Count)
system.cpu.thread_0.numMemRefs                      0                       # Number of Memory References (Count)
system.cpu.workload.numSyscalls                   113                       # Number of system calls (Count)
system.cpu_clk_domain.clock                       313                       # Clock period in ticks (Tick)
system.cpu_voltage_domain.voltage                   1                       # Voltage in Volts (Volt)
system.l2.demandHits::cpu.inst                    714                       # number of demand (read+write) hits (Count)
system.l2.demandHits::cpu.data                   4003                       # number of demand (read+write) hits (Count)
system.l2.demandHits::total                      4717                       # number of demand (read+write) hits (Count)
system.l2.overallHits::cpu.inst                   714                       # number of overall hits (Count)
system.l2.overallHits::cpu.data                  4003                       # number of overall hits (Count)
system.l2.overallHits::total                     4717                       # number of overall hits (Count)
system.l2.demandMisses::cpu.inst                 1803                       # number of demand (read+write) misses (Count)
system.l2.demandMisses::cpu.data                19504                       # number of demand (read+write) misses (Count)
system.l2.demandMisses::total                   21307                       # number of demand (read+write) misses (Count)
system.l2.overallMisses::cpu.inst                1803                       # number of overall misses (Count)
system.l2.overallMisses::cpu.data               19504                       # number of overall misses (Count)
system.l2.overallMisses::total                  21307                       # number of overall misses (Count)
system.l2.demandAccesses::cpu.inst               2517                       # number of demand (read+write) accesses (Count)
system.l2.demandAccesses::cpu.data              23507                       # number of demand (read+write) accesses (Count)
system.l2.demandAccesses::total                 26024                       # number of demand (read+write) accesses (Count)
system.l2.overallAccesses::cpu.inst              2517                       # number of overall (read+write) accesses (Count)
system.l2.overallAccesses::cpu.data             23507                       # number of overall (read+write) accesses (Count)
system.l2.overallAccesses::total                26024                       # number of overall (read+write) accesses (Count)
system.l2.demandMissRate::cpu.inst           0.716329                       # miss rate for demand accesses (Ratio)
system.l2.demandMissRate::cpu.data           0.829710                       # miss rate for demand accesses (Ratio)
system.l2.demandMissRate::total              0.818744                       # miss rate for demand accesses (Ratio)
system.l2.overallMissRate::cpu.inst          0.716329                       # miss rate for overall accesses (Ratio)
system.l2.overallMissRate::cpu.data          0.829710                       # miss rate for overall accesses (Ratio)
system.l2.overallMissRate::total             0.818744                       # miss rate for overall accesses (Ratio)
system.l2.blockedCycles::no_mshrs                   0                       # number of cycles access was blocked (Cycle)
system.l2.blockedCycles::no_targets                 0                       # number of cycles access was blocked (Cycle)
system.l2.blockedCauses::no_mshrs                   0                       # number of times access was blocked (Count)
system.l2.blockedCauses::no_targets                 0                       # number of times access was blocked (Count)
system.l2.avgBlocked::no_mshrs                    nan                       # average number of cycles each access was blocked ((Cycle/Count))
system.l2.avgBlocked::no_targets                  nan                       # average number of cycles each access was blocked ((Cycle/Count))
system.l2.replacements                              0                       # number of replacements (Count)
system.l2.ReadCleanReq.hits::cpu.inst             714                       # number of ReadCleanReq hits (Count)
system.l2.ReadCleanReq.hits::total                714                       # number of ReadCleanReq hits (Count)
system.l2.ReadCleanReq.misses::cpu.inst          1803                       # number of ReadCleanReq misses (Count)
system.l2.ReadCleanReq.misses::total             1803                       # number of ReadCleanReq misses (Count)
system.l2.ReadCleanReq.accesses::cpu.inst         2517                       # number of ReadCleanReq accesses(hits+misses) (Count)
system.l2.ReadCleanReq.accesses::total           2517                       # number of ReadCleanReq accesses(hits+misses) (Count)
system.l2.ReadCleanReq.missRate::cpu.inst     0.716329                       # miss rate for ReadCleanReq accesses (Ratio)
system.l2.ReadCleanReq.missRate::total       0.716329                       # miss rate for ReadCleanReq accesses (Ratio)
system.l2.ReadExReq.hits::cpu.data               1057                       # number of ReadExReq hits (Count)
system.l2.ReadExReq.hits::total                  1057                       # number of ReadExReq hits (Count)
system.l2.ReadExReq.misses::cpu.data            16148                       # number of ReadExReq misses (Count)
system.l2.ReadExReq.misses::total               16148                       # number of ReadExReq misses (Count)
system.l2.ReadExReq.accesses::cpu.data          17205                       # number of ReadExReq accesses(hits+misses) (Count)
system.l2.ReadExReq.accesses::total             17205                       # number of ReadExReq accesses(hits+misses) (Count)
system.l2.ReadExReq.missRate::cpu.data       0.938564                       # miss rate for ReadExReq accesses (Ratio)
system.l2.ReadExReq.missRate::total          0.938564                       # miss rate for ReadExReq accesses (Ratio)
system.l2.ReadSharedReq.hits::cpu.data           2946                       # number of ReadSharedReq hits (Count)
system.l2.ReadSharedReq.hits::total              2946                       # number of ReadSharedReq hits (Count)
system.l2.ReadSharedReq.misses::cpu.data         3356                       # number of ReadSharedReq misses (Count)
system.l2.ReadSharedReq.misses::total            3356                       # number of ReadSharedReq misses (Count)
system.l2.ReadSharedReq.accesses::cpu.data         6302                       # number of ReadSharedReq accesses(hits+misses) (Count)
system.l2.ReadSharedReq.accesses::total          6302                       # number of ReadSharedReq accesses(hits+misses) (Count)
system.l2.ReadSharedReq.missRate::cpu.data     0.532529                       # miss rate for ReadSharedReq accesses (Ratio)
system.l2.ReadSharedReq.missRate::total      0.532529                       # miss rate for ReadSharedReq accesses (Ratio)
system.l2.WritebackClean.hits::writebacks         2006                       # number of WritebackClean hits (Count)
system.l2.WritebackClean.hits::total             2006                       # number of WritebackClean hits (Count)
system.l2.WritebackClean.accesses::writebacks         2006                       # number of WritebackClean accesses(hits+misses) (Count)
system.l2.WritebackClean.accesses::total         2006                       # number of WritebackClean accesses(hits+misses) (Count)
system.l2.WritebackDirty.hits::writebacks        18739                       # number of WritebackDirty hits (Count)
system.l2.WritebackDirty.hits::total            18739                       # number of WritebackDirty hits (Count)
system.l2.WritebackDirty.accesses::writebacks        18739                       # number of WritebackDirty accesses(hits+misses) (Count)
system.l2.WritebackDirty.accesses::total        18739                       # number of WritebackDirty accesses(hits+misses) (Count)
system.l2.power_state.pwrStateResidencyTicks::UNDEFINED  61405781365                       # Cumulative time (in ticks) in various power states (Tick)
system.l2.tags.tagsInUse                 14870.088631                       # Average ticks per tags in use ((Tick/Count))
system.l2.tags.totalRefs                        51025                       # Total number of references to valid blocks. (Count)
system.l2.tags.sampledRefs                      21307                       # Sample count of references to valid blocks. (Count)
system.l2.tags.avgRefs                       2.394753                       # Average number of references to valid blocks. ((Count/Count))
system.l2.tags.warmupTick                           0                       # The tick when the warmup percentage was hit. (Tick)
system.l2.tags.occupancies::cpu.inst      1552.059362                       # Average occupied blocks per tick, per requestor ((Count/Tick))
system.l2.tags.occupancies::cpu.data     13318.029270                       # Average occupied blocks per tick, per requestor ((Count/Tick))
system.l2.tags.avgOccs::cpu.inst             0.047365                       # Average percentage of cache occupancy ((Ratio/Tick))
system.l2.tags.avgOccs::cpu.data             0.406434                       # Average percentage of cache occupancy ((Ratio/Tick))
system.l2.tags.avgOccs::total                0.453799                       # Average percentage of cache occupancy ((Ratio/Tick))
system.l2.tags.occupanciesTaskId::1024          21306                       # Occupied blocks per task id (Count)
system.l2.tags.ageTaskId_1024::0                  140                       # Occupied blocks per task id, per block age (Count)
system.l2.tags.ageTaskId_1024::1                   11                       # Occupied blocks per task id, per block age (Count)
system.l2.tags.ageTaskId_1024::2                 1145                       # Occupied blocks per task id, per block age (Count)
system.l2.tags.ageTaskId_1024::4                20010                       # Occupied blocks per task id, per block age (Count)
system.l2.tags.ratioOccsTaskId::1024         0.650208                       # Ratio of occupied blocks and all blocks, per task id (Ratio)
system.l2.tags.tagAccesses                     429507                       # Number of tag accesses (Count)
system.l2.tags.dataAccesses                    429507                       # Number of data accesses (Count)
system.l2.tags.power_state.pwrStateResidencyTicks::UNDEFINED  61405781365                       # Cumulative time (in ticks) in various power states (Tick)
system.mem_ctrls.bytesRead::cpu.inst           115392                       # Number of bytes read from this memory (Byte)
system.mem_ctrls.bytesRead::cpu.data          1248256                       # Number of bytes read from this memory (Byte)
system.mem_ctrls.bytesRead::total             1363648                       # Number of bytes read from this memory (Byte)
system.mem_ctrls.bytesInstRead::cpu.inst       115392                       # Number of instructions bytes read from this memory (Byte)
system.mem_ctrls.bytesInstRead::total          115392                       # Number of instructions bytes read from this memory (Byte)
system.mem_ctrls.bytesWritten::cpu.data        295690                       # Number of bytes written to this memory (Byte)
system.mem_ctrls.bytesWritten::total           295690                       # Number of bytes written to this memory (Byte)
system.mem_ctrls.numReads::cpu.inst              1803                       # Number of read requests responded to by this memory (Count)
system.mem_ctrls.numReads::cpu.data             19504                       # Number of read requests responded to by this memory (Count)
system.mem_ctrls.numReads::total                21307                       # Number of read requests responded to by this memory (Count)
system.mem_ctrls.numWrites::cpu.data           295690                       # Number of write requests responded to by this memory (Count)
system.mem_ctrls.numWrites::total              295690                       # Number of write requests responded to by this memory (Count)
system.mem_ctrls.bwRead::cpu.inst             1879172                       # Total read bandwidth from this memory ((Byte/Second))
system.mem_ctrls.bwRead::cpu.data            20327988                       # Total read bandwidth from this memory ((Byte/Second))
system.mem_ctrls.bwRead::total               22207160                       # Total read bandwidth from this memory ((Byte/Second))
system.mem_ctrls.bwInstRead::cpu.inst         1879172                       # Instruction read bandwidth from this memory ((Byte/Second))
system.mem_ctrls.bwInstRead::total            1879172                       # Instruction read bandwidth from this memory ((Byte/Second))
system.mem_ctrls.bwWrite::cpu.data            4815345                       # Write bandwidth from this memory ((Byte/Second))
system.mem_ctrls.bwWrite::total               4815345                       # Write bandwidth from this memory ((Byte/Second))
system.mem_ctrls.bwTotal::cpu.inst            1879172                       # Total bandwidth to/from this memory ((Byte/Second))
system.mem_ctrls.bwTotal::cpu.data           25143333                       # Total bandwidth to/from this memory ((Byte/Second))
system.mem_ctrls.bwTotal::total              27022504                       # Total bandwidth to/from this memory ((Byte/Second))
system.mem_ctrls.power_state.pwrStateResidencyTicks::UNDEFINED  61405781365                       # Cumulative time (in ticks) in various power states (Tick)
system.membus.transDist::ReadResp                5159                       # Transaction distribution (Count)
system.membus.transDist::WriteReq              295690                       # Transaction distribution (Count)
system.membus.transDist::WriteResp             295690                       # Transaction distribution (Count)
system.membus.transDist::CleanEvict                 1                       # Transaction distribution (Count)
system.membus.transDist::ReadExReq              16148                       # Transaction distribution (Count)
system.membus.transDist::ReadExResp             16148                       # Transaction distribution (Count)
system.membus.transDist::ReadSharedReq           5159                       # Transaction distribution (Count)
system.membus.pktCount_system.l2.mem_side_port::system.mem_ctrls.port       633995                       # Packet count per connected requestor and responder (Count)
system.membus.pktCount_system.l2.mem_side_port::total       633995                       # Packet count per connected requestor and responder (Count)
system.membus.pktCount::total                  633995                       # Packet count per connected requestor and responder (Count)
system.membus.pktSize_system.l2.mem_side_port::system.mem_ctrls.port      1659338                       # Cumulative packet size per connected requestor and responder (Byte)
system.membus.pktSize_system.l2.mem_side_port::total      1659338                       # Cumulative packet size per connected requestor and responder (Byte)
system.membus.pktSize::total                  1659338                       # Cumulative packet size per connected requestor and responder (Byte)
system.membus.snoops                                0                       # Total snoops (Count)
system.membus.snoopTraffic                          0                       # Total snoop traffic (Byte)
system.membus.snoopFanout::samples             316997                       # Request fanout histogram (Count)
system.membus.snoopFanout::mean                     0                       # Request fanout histogram (Count)
system.membus.snoopFanout::stdev                    0                       # Request fanout histogram (Count)
system.membus.snoopFanout::underflows               0      0.00%      0.00% # Request fanout histogram (Count)
system.membus.snoopFanout::0                   316997    100.00%    100.00% # Request fanout histogram (Count)
system.membus.snoopFanout::1                        0      0.00%    100.00% # Request fanout histogram (Count)
system.membus.snoopFanout::overflows                0      0.00%    100.00% # Request fanout histogram (Count)
system.membus.snoopFanout::min_value                0                       # Request fanout histogram (Count)
system.membus.snoopFanout::max_value                0                       # Request fanout histogram (Count)
system.membus.snoopFanout::total               316997                       # Request fanout histogram (Count)
system.membus.power_state.pwrStateResidencyTicks::UNDEFINED  61405781365                       # Cumulative time (in ticks) in various power states (Tick)
system.membus.snoop_filter.totRequests          21308                       # Total number of requests made to the snoop filter. (Count)
system.membus.snoop_filter.hitSingleRequests            1                       # Number of requests hitting in the snoop filter with a single holder of the requested data. (Count)
system.membus.snoop_filter.hitMultiRequests            0                       # Number of requests hitting in the snoop filter with multiple (>1) holders of the requested data. (Count)
system.membus.snoop_filter.totSnoops                0                       # Total number of snoops made to the snoop filter. (Count)
system.membus.snoop_filter.hitSingleSnoops            0                       # Number of snoops hitting in the snoop filter with a single holder of the requested data. (Count)
system.membus.snoop_filter.hitMultiSnoops            0                       # Number of snoops hitting in the snoop filter with multiple (>1) holders of the requested data. (Count)
system.tol2bus.transDist::ReadResp               8819                       # Transaction distribution (Count)
system.tol2bus.transDist::WriteReq             295690                       # Transaction distribution (Count)
system.tol2bus.transDist::WriteResp            295690                       # Transaction distribution (Count)
system.tol2bus.transDist::WritebackDirty        18739                       # Transaction distribution (Count)
system.tol2bus.transDist::WritebackClean         2006                       # Transaction distribution (Count)
system.tol2bus.transDist::CleanEvict             4256                       # Transaction distribution (Count)
system.tol2bus.transDist::ReadExReq             17205                       # Transaction distribution (Count)
system.tol2bus.transDist::ReadExResp            17205                       # Transaction distribution (Count)
system.tol2bus.transDist::ReadCleanReq           2517                       # Transaction distribution (Count)
system.tol2bus.transDist::ReadSharedReq          6302                       # Transaction distribution (Count)
system.tol2bus.pktCount_system.cpu.icache.mem_side_port::system.l2.cpu_side_port         7040                       # Packet count per connected requestor and responder (Count)
system.tol2bus.pktCount_system.cpu.dcache.mem_side_port::system.l2.cpu_side_port       661389                       # Packet count per connected requestor and responder (Count)
system.tol2bus.pktCount::total                 668429                       # Packet count per connected requestor and responder (Count)
system.tol2bus.pktSize_system.cpu.icache.mem_side_port::system.l2.cpu_side_port       289472                       # Cumulative packet size per connected requestor and responder (Byte)
system.tol2bus.pktSize_system.cpu.dcache.mem_side_port::system.l2.cpu_side_port      2999434                       # Cumulative packet size per connected requestor and responder (Byte)
system.tol2bus.pktSize::total                 3288906                       # Cumulative packet size per connected requestor and responder (Byte)
system.tol2bus.snoops                               1                       # Total snoops (Count)
system.tol2bus.snoopTraffic                         0                       # Total snoop traffic (Byte)
system.tol2bus.snoopFanout::samples            321715                       # Request fanout histogram (Count)
system.tol2bus.snoopFanout::mean                    0                       # Request fanout histogram (Count)
system.tol2bus.snoopFanout::stdev                   0                       # Request fanout histogram (Count)
system.tol2bus.snoopFanout::underflows              0      0.00%      0.00% # Request fanout histogram (Count)
system.tol2bus.snoopFanout::0                  321715    100.00%    100.00% # Request fanout histogram (Count)
system.tol2bus.snoopFanout::1                       0      0.00%    100.00% # Request fanout histogram (Count)
system.tol2bus.snoopFanout::2                       0      0.00%    100.00% # Request fanout histogram (Count)
system.tol2bus.snoopFanout::3                       0      0.00%    100.00% # Request fanout histogram (Count)
system.tol2bus.snoopFanout::4                       0      0.00%    100.00% # Request fanout histogram (Count)
system.tol2bus.snoopFanout::overflows               0      0.00%    100.00% # Request fanout histogram (Count)
system.tol2bus.snoopFanout::min_value               0                       # Request fanout histogram (Count)
system.tol2bus.snoopFanout::max_value               0                       # Request fanout histogram (Count)
system.tol2bus.snoopFanout::total              321715                       # Request fanout histogram (Count)
system.tol2bus.power_state.pwrStateResidencyTicks::UNDEFINED  61405781365                       # Cumulative time (in ticks) in various power states (Tick)
system.tol2bus.snoop_filter.totRequests         51025                       # Total number of requests made to the snoop filter. (Count)
system.tol2bus.snoop_filter.hitSingleRequests        25001                       # Number of requests hitting in the snoop filter with a single holder of the requested data. (Count)
system.tol2bus.snoop_filter.hitMultiRequests            0                       # Number of requests hitting in the snoop filter with multiple (>1) holders of the requested data. (Count)
system.tol2bus.snoop_filter.totSnoops               0                       # Total number of snoops made to the snoop filter. (Count)
system.tol2bus.snoop_filter.hitSingleSnoops            0                       # Number of snoops hitting in the snoop filter with a single holder of the requested data. (Count)
system.tol2bus.snoop_filter.hitMultiSnoops            0                       # Number of snoops hitting in the snoop filter with multiple (>1) holders of the requested data. (Count)
system.voltage_domain.voltage                       1                       # Voltage in Volts (Volt)
system.workload.inst.arm                            0                       # number of arm instructions executed (Count)
system.workload.inst.quiesce                        0                       # number of quiesce instructions executed (Count)

---------- End Simulation Statistics   ----------
